NS-C-142.sdf
     RDKit          3D

 25 28  0  0  1  0  0  0  0  0999 V2000
  -20.3935   -1.9463   23.2862 C   0  0  0  0  0  0  0  0  0  0  0  0
  -20.0844   -3.3629   23.0894 C   0  0  0  0  0  0  0  0  0  0  0  0
  -21.5637   -1.6334   23.6894 O   0  0  0  0  0  0  0  0  0  0  0  0
  -18.8745   -3.7312   22.5241 C   0  0  0  0  0  0  0  0  0  0  0  0
  -18.4717   -4.9752   22.2915 N   0  0  0  0  0  0  0  0  0  0  0  0
  -19.3331   -5.9773   22.6441 C   0  0  0  0  0  0  0  0  0  0  0  0
  -20.5572   -5.7002   23.2123 C   0  0  0  0  0  0  0  0  0  0  0  0
  -20.9366   -4.3743   23.4375 C   0  0  0  0  0  0  0  0  0  0  0  0
  -17.3848   -5.5736   21.7730 C   0  0  0  0  0  0  0  0  0  0  0  0
  -17.5528   -6.9021   21.7969 N   0  0  0  0  0  0  0  0  0  0  0  0
  -18.7443   -7.1418   22.3299 N   0  0  0  0  0  0  0  0  0  0  0  0
  -21.5502    2.6395   26.9309 C   0  0  0  0  0  0  0  0  0  0  0  0
  -21.9123    3.2720   28.1193 C   0  0  0  0  0  0  0  0  0  0  0  0
  -20.9496    3.7189   29.0053 C   0  0  0  0  0  0  0  0  0  0  0  0
  -19.6329    3.5139   28.6656 C   0  0  0  0  0  0  0  0  0  0  0  0
  -19.2611    2.8874   27.4890 C   0  0  0  0  0  0  0  0  0  0  0  0
  -20.2247    2.4407   26.6034 C   0  0  0  0  0  0  0  0  0  0  0  0
  -21.2971    4.3394   30.1712 F   0  0  0  0  0  0  0  0  0  0  0  0
  -19.8414    1.7929   25.3867 N   0  0  0  0  0  0  0  0  0  0  0  0
  -18.9575    2.4368   24.4263 C   0  0  0  0  0  0  0  0  0  0  0  0
  -18.5525    1.3163   23.5080 C   0  0  0  0  0  0  0  0  0  0  0  0
  -19.8092    0.4351   23.4885 C   0  0  2  0  0  0  0  0  0  0  0  0
  -20.2296    0.4787   24.9184 C   0  0  0  0  0  0  0  0  0  0  0  0
  -19.4590   -0.9109   23.0511 N   0  0  0  0  0  0  0  0  0  0  0  0
  -17.9470    2.6878   27.1595 F   0  0  0  0  0  0  0  0  0  0  0  0
  1  2  1  0
  1  3  2  0
  2  4  2  0
  4  5  1  0
  5  6  1  0
  6  7  1  0
  7  8  2  0
  8  2  1  0
  5  9  1  0
  9 10  2  0
 10 11  1  0
 11  6  2  0
 12 13  2  0
 13 14  1  0
 14 15  2  0
 15 16  1  0
 16 17  2  0
 17 12  1  0
 14 18  1  0
 17 19  1  0
 19 20  1  0
 20 21  1  0
 21 22  1  0
 22 23  1  0
 23 19  1  0
 22 24  1  1
  1 24  1  0
 16 25  1  0
M  END
$$$$
