NS-C-142.sdf
     RDKit          3D

 26 29  0  0  0  0  0  0  0  0999 V2000
  -21.2021    0.3964   24.3654 N   0  0  0  0  0  0  0  0  0  0  0  0
  -20.9979    1.0014   23.0530 C   0  0  0  0  0  0  0  0  0  0  0  0
  -20.4254   -0.1370   22.2163 C   0  0  0  0  0  0  0  0  0  0  0  0
  -21.1551   -1.3628   22.7536 C   0  0  2  0  0  0  0  0  0  0  0  0
  -21.2486   -1.0684   24.2689 C   0  0  0  0  0  0  0  0  0  0  0  0
  -21.9427    2.4712   25.3801 C   0  0  0  0  0  0  0  0  0  0  0  0
  -22.4008    3.2052   26.4814 C   0  0  0  0  0  0  0  0  0  0  0  0
  -22.5710    2.5740   27.7032 C   0  0  0  0  0  0  0  0  0  0  0  0
  -22.2951    1.2268   27.8441 C   0  0  0  0  0  0  0  0  0  0  0  0
  -21.8395    0.5076   26.7395 C   0  0  0  0  0  0  0  0  0  0  0  0
  -21.6393    1.0991   25.4713 C   0  0  0  0  0  0  0  0  0  0  0  0
  -23.0098    3.2754   28.7559 F   0  0  0  0  0  0  0  0  0  0  0  0
  -21.5803   -0.7962   26.9346 F   0  0  0  0  0  0  0  0  0  0  0  0
  -21.1821   -3.7570   22.1976 C   0  0  0  0  0  0  0  0  0  0  0  0
  -22.3869   -3.8602   22.3918 O   0  0  0  0  0  0  0  0  0  0  0  0
  -20.4696   -2.5984   22.4054 N   0  0  0  0  0  0  0  0  0  0  0  0
  -19.4890   -2.6053   22.3179 H   0  0  0  0  0  0  0  0  0  0  0  0
  -20.3843   -4.8963   21.6525 C   0  0  0  0  0  0  0  0  0  0  0  0
  -19.3947   -5.4698   22.3675 C   0  0  0  0  0  0  0  0  0  0  0  0
  -18.7081   -6.5470   21.8158 N   0  0  0  0  0  0  0  0  0  0  0  0
  -18.9786   -7.0821   20.5666 C   0  0  0  0  0  0  0  0  0  0  0  0
  -20.0392   -6.5012   19.8218 C   0  0  0  0  0  0  0  0  0  0  0  0
  -20.7183   -5.4592   20.3419 C   0  0  0  0  0  0  0  0  0  0  0  0
  -17.6771   -7.2974   22.3059 C   0  0  0  0  0  0  0  0  0  0  0  0
  -17.3276   -8.2105   21.4276 N   0  0  0  0  0  0  0  0  0  0  0  0
  -18.1501   -8.0754   20.3287 N   0  0  0  0  0  0  0  0  0  0  0  0
 14 18  1  0
 14 15  2  0
 18 19  2  0
 19 20  1  0
 20 21  1  0
 21 22  1  0
 22 23  2  0
 23 18  1  0
 20 24  1  0
 24 25  2  0
 25 26  1  0
 26 21  2  0
  6  7  2  0
  7  8  1  0
  8  9  2  0
  9 10  1  0
 10 11  2  0
 11  6  1  0
  8 12  1  0
 11  1  1  0
  1  2  1  0
  2  3  1  0
  3  4  1  0
  4  5  1  0
  5  1  1  0
  4 16  1  1
 14 16  1  0
 10 13  1  0
 16 17  1  0
M  END
>  <minimizedAffinity>  (1) 
-6.59992

>  <CNNscore>  (1) 
0.4933316708

>  <CNNaffinity>  (1) 
5.6825184822

>  <CNN_VS>  (1) 
2.8033664227

>  <CNNaffinity_variance>  (1) 
0.0039231111

$$$$
