7uj4
     RDKit          3D

 44 48  0  0  0  0  0  0  0  0999 V2000
  -26.0133   -0.5437   26.9584 C   0  0  0  0  0  0  0  0  0  0  0  0
  -23.7061    0.2574   26.7086 N   0  0  0  0  0  0  0  0  0  0  0  0
  -23.6612    2.0374   25.2855 O   0  0  0  0  0  0  0  0  0  0  0  0
  -19.0675  -11.9794   22.4030 S   0  0  1  0  0  6  0  0  0  0  0  0
  -24.8715   -0.2585   26.0305 C   0  0  1  0  0  0  0  0  0  0  0  0
  -18.0651    3.2951   23.5574 N   0  0  0  0  0  0  0  0  0  0  0  0
  -20.3009    1.2661   25.5688 O   0  0  0  0  0  0  0  0  0  0  0  0
  -24.4464   -1.5512   25.3193 C   0  0  0  0  0  0  0  0  0  0  0  0
  -18.7615    1.4633   22.3480 N   0  0  0  0  0  0  0  0  0  0  0  0
  -19.9078  -12.4269   23.5660 O   0  0  0  0  0  0  0  0  0  0  0  0
  -23.1170   -0.4955   27.8075 C   0  0  0  0  0  0  0  0  0  0  0  0
  -20.2617   -0.2057   23.2509 N   0  0  0  0  0  0  0  0  0  0  0  0
  -19.6605  -12.5803   21.1608 O   0  0  0  0  0  0  0  0  0  0  0  0
  -21.6213   -0.3679   27.8604 C   0  0  0  0  0  0  0  0  0  0  0  0
  -20.0773   -4.9854   22.1070 N   0  0  0  0  0  0  0  0  0  0  0  0
  -23.1556    1.4920   26.2809 C   0  0  0  0  0  0  0  0  0  0  0  0
  -19.1556  -10.2698   22.2686 N   0  0  0  0  0  0  0  0  0  0  0  0
  -22.0409    2.0585   27.0135 C   0  0  0  0  0  0  0  0  0  0  0  0
  -22.3113    2.7700   28.1873 C   0  0  0  0  0  0  0  0  0  0  0  0
  -21.3314    3.3165   28.9730 C   0  0  0  0  0  0  0  0  0  0  0  0
  -19.9943    3.1810   28.6238 C   0  0  0  0  0  0  0  0  0  0  0  0
  -19.7151    2.4885   27.4794 C   0  0  0  0  0  0  0  0  0  0  0  0
  -20.7204    1.9293   26.6741 C   0  0  0  0  0  0  0  0  0  0  0  0
  -19.5237    1.7588   24.5441 C   0  0  0  0  0  0  0  0  0  0  0  0
  -18.7798    2.9228   24.6235 C   0  0  0  0  0  0  0  0  0  0  0  0
  -18.0457    2.5820   22.4209 C   0  0  0  0  0  0  0  0  0  0  0  0
  -19.5225    0.9935   23.3713 C   0  0  0  0  0  0  0  0  0  0  0  0
  -20.9492   -0.8525   22.1506 C   0  0  0  0  0  0  0  0  0  0  0  0
  -20.6809   -1.3132   24.0746 C   0  0  0  0  0  0  0  0  0  0  0  0
  -20.5944   -2.1697   22.8319 C   0  0  2  0  0  0  0  0  0  0  0  0
  -19.2341   -2.7157   22.5273 C   0  0  0  0  0  0  0  0  0  0  0  0
  -19.1895   -4.1739   22.9410 C   0  0  0  0  0  0  0  0  0  0  0  0
  -21.5931   -3.2655   22.6785 C   0  0  0  0  0  0  0  0  0  0  0  0
  -21.0597   -4.1699   21.5305 C   0  0  0  0  0  0  0  0  0  0  0  0
  -19.2867   -5.8608   21.3549 C   0  0  0  0  0  0  0  0  0  0  0  0
  -19.1332   -7.2795   21.8288 C   0  0  1  0  0  0  0  0  0  0  0  0
  -17.9255   -7.8993   21.2038 C   0  0  0  0  0  0  0  0  0  0  0  0
  -17.1587   -8.8483   22.0500 C   0  0  0  0  0  0  0  0  0  0  0  0
  -19.3427   -7.4086   23.2653 C   0  0  0  0  0  0  0  0  0  0  0  0
  -18.6602   -8.5789   23.9250 C   0  0  0  0  0  0  0  0  0  0  0  0
  -18.1145   -9.5851   22.9641 C   0  0  1  0  0  0  0  0  0  0  0  0
  -17.4157  -12.5485   22.6822 C   0  0  0  0  0  0  0  0  0  0  0  0
  -17.1007  -13.6606   21.7335 C   0  0  0  0  0  0  0  0  0  0  0  0
  -21.6007    4.0073   30.1156 F   0  0  0  0  0  0  0  0  0  0  0  0
  5  1  1  1
  2 11  1  0
  2 16  1  0
  4 10  2  0
  4 13  2  0
  4 42  1  1
  2  5  1  0
  5  8  1  0
  6 26  2  0
  7 24  1  0
  9 27  2  0
 11 14  1  0
 12 28  1  0
 12 29  1  0
 15 35  1  0
  3 16  2  0
 16 18  1  0
  4 17  1  0
 18 19  2  0
 18 23  1  0
 19 20  1  0
 20 21  2  0
 20 44  1  0
 21 22  1  0
 22 23  2  0
  7 23  1  0
 24 25  2  0
 24 27  1  0
  6 25  1  0
  9 26  1  0
 12 27  1  0
 30 28  1  6
 29 30  1  0
 30 31  1  0
 30 33  1  0
 31 32  1  0
 15 32  1  0
 33 34  1  0
 15 34  1  0
 36 35  1  1
 36 37  1  0
 36 39  1  0
 37 38  1  0
 38 41  1  0
 39 40  1  0
 40 41  1  0
 41 17  1  6
 42 43  1  0
M  END
$$$$
