7uj4
     RDKit          3D

 44 48  0  0  0  0  0  0  0  0999 V2000
  -17.7660    3.5253   23.2534 C   0  0  0  0  0  0  0  0  0  0  0  0
  -19.1699    2.4743   24.9715 N   0  0  0  0  0  0  0  0  0  0  0  0
  -18.0787    1.2719   26.5712 O   0  0  0  0  0  0  0  0  0  0  0  0
  -18.5961  -11.8714   22.3242 S   0  0  1  0  0  6  0  0  0  0  0  0
  -18.0481    2.3064   24.0786 C   0  0  1  0  0  0  0  0  0  0  0  0
  -24.6620    2.5150   24.0932 N   0  0  0  0  0  0  0  0  0  0  0  0
  -21.8619    0.9430   25.7813 O   0  0  0  0  0  0  0  0  0  0  0  0
  -18.3753    1.1218   23.1580 C   0  0  0  0  0  0  0  0  0  0  0  0
  -23.6124    1.0440   22.6656 N   0  0  0  0  0  0  0  0  0  0  0  0
  -17.9822  -12.3782   23.5991 O   0  0  0  0  0  0  0  0  0  0  0  0
  -20.3370    3.2269   24.5322 C   0  0  0  0  0  0  0  0  0  0  0  0
  -21.6768   -0.2526   23.3161 N   0  0  0  0  0  0  0  0  0  0  0  0
  -19.8312  -12.6853   22.0640 O   0  0  0  0  0  0  0  0  0  0  0  0
  -20.4165    4.5898   25.1584 C   0  0  0  0  0  0  0  0  0  0  0  0
  -20.6149   -5.0209   22.7475 N   0  0  0  0  0  0  0  0  0  0  0  0
  -19.1099    1.8927   26.2632 C   0  0  0  0  0  0  0  0  0  0  0  0
  -19.0659  -10.2336   22.5370 N   0  0  0  0  0  0  0  0  0  0  0  0
  -20.2396    2.0449   27.1583 C   0  0  0  0  0  0  0  0  0  0  0  0
  -20.0419    2.7211   28.3669 C   0  0  0  0  0  0  0  0  0  0  0  0
  -21.0472    2.9503   29.2686 C   0  0  0  0  0  0  0  0  0  0  0  0
  -22.3374    2.5073   29.0094 C   0  0  0  0  0  0  0  0  0  0  0  0
  -22.5453    1.8450   27.8324 C   0  0  0  0  0  0  0  0  0  0  0  0
  -21.5139    1.6097   26.9090 C   0  0  0  0  0  0  0  0  0  0  0  0
  -22.8039    1.3154   24.8482 C   0  0  0  0  0  0  0  0  0  0  0  0
  -23.8075    2.2386   25.0829 C   0  0  0  0  0  0  0  0  0  0  0  0
  -24.5787    1.9306   22.8881 C   0  0  0  0  0  0  0  0  0  0  0  0
  -22.6917    0.6899   23.6003 C   0  0  0  0  0  0  0  0  0  0  0  0
  -20.7784   -1.0365   24.1407 C   0  0  0  0  0  0  0  0  0  0  0  0
  -21.0589   -0.8747   22.1707 C   0  0  0  0  0  0  0  0  0  0  0  0
  -20.8487   -2.0918   23.0424 C   0  0  2  0  0  0  0  0  0  0  0  0
  -22.0112   -3.0324   23.1151 C   0  0  0  0  0  0  0  0  0  0  0  0
  -21.7287   -4.2275   22.2256 C   0  0  0  0  0  0  0  0  0  0  0  0
  -19.6055   -2.8862   22.8296 C   0  0  0  0  0  0  0  0  0  0  0  0
  -19.8226   -4.2274   23.5874 C   0  0  0  0  0  0  0  0  0  0  0  0
  -21.1151   -6.2675   23.1385 C   0  0  0  0  0  0  0  0  0  0  0  0
  -20.3367   -7.5015   22.7752 C   0  0  1  0  0  0  0  0  0  0  0  0
  -21.1457   -8.3662   21.8635 C   0  0  0  0  0  0  0  0  0  0  0  0
  -20.3966   -9.0945   20.8085 C   0  0  0  0  0  0  0  0  0  0  0  0
  -18.9513   -7.2018   22.4361 C   0  0  0  0  0  0  0  0  0  0  0  0
  -18.2722   -8.1876   21.5209 C   0  0  0  0  0  0  0  0  0  0  0  0
  -19.0265   -9.4644   21.3356 C   0  0  1  0  0  0  0  0  0  0  0  0
  -17.3991  -12.0664   21.0360 C   0  0  0  0  0  0  0  0  0  0  0  0
  -16.9949  -13.5028   20.9394 C   0  0  0  0  0  0  0  0  0  0  0  0
  -20.8490    3.6104   30.4435 F   0  0  0  0  0  0  0  0  0  0  0  0
  5  1  1  6
  2 11  1  0
  2 16  1  0
  4 10  2  0
  4 13  2  0
  4 42  1  6
  2  5  1  0
  5  8  1  0
  6 26  2  0
  7 24  1  0
  9 27  2  0
 11 14  1  0
 12 28  1  0
 12 29  1  0
 15 35  1  0
  3 16  2  0
 16 18  1  0
  4 17  1  0
 18 19  2  0
 18 23  1  0
 19 20  1  0
 20 21  2  0
 20 44  1  0
 21 22  1  0
 22 23  2  0
  7 23  1  0
 24 25  2  0
 24 27  1  0
  6 25  1  0
  9 26  1  0
 12 27  1  0
 30 28  1  1
 29 30  1  0
 30 31  1  0
 30 33  1  0
 31 32  1  0
 15 32  1  0
 33 34  1  0
 15 34  1  0
 36 35  1  6
 36 37  1  0
 36 39  1  0
 37 38  1  0
 38 41  1  0
 39 40  1  0
 40 41  1  0
 41 17  1  1
 42 43  1  0
M  END
$$$$
