ziftomenib.sdf
     RDKit          3D

 49 54  0  0  1  0  0  0  0  0999 V2000
  -17.3311  -13.0623   22.1160 N   0  0  0  0  0  0  0  0  0  0  0  0
  -17.8198  -12.0149   22.2698 C   0  0  0  0  0  0  0  0  0  0  0  0
  -18.4101  -10.7349   22.4708 C   0  0  0  0  0  0  0  0  0  0  0  0
  -19.5656  -10.4233   23.1169 N   0  0  0  0  0  0  0  0  0  0  0  0
  -20.3851  -11.4384   23.7279 C   0  0  0  0  0  0  0  0  0  0  0  0
  -21.7190  -11.6011   23.0470 C   0  0  1  0  0  0  0  0  0  0  0  0
  -21.5169  -12.2254   21.7593 N   0  0  0  0  0  0  0  0  0  0  0  0
  -20.5941  -13.3140   21.8027 C   0  0  0  0  0  0  0  0  0  0  0  0
  -21.2045  -14.6252   21.3623 C   0  0  0  0  0  0  0  0  0  0  0  0
  -21.7506  -14.4949   20.0543 N   0  0  0  0  0  0  0  0  0  0  0  0
  -20.6153  -14.6150   18.7933 S   0  0  1  0  0  6  0  0  0  0  0  0
  -19.2963  -15.2266   19.2443 O   0  0  0  0  0  0  0  0  0  0  0  0
  -21.2944  -15.6133   17.4799 C   0  0  0  0  0  0  0  0  0  0  0  0
  -20.2740  -13.2708   18.2008 O   0  0  0  0  0  0  0  0  0  0  0  0
  -22.7008  -13.4447   19.9442 C   0  0  0  0  0  0  0  0  0  0  0  0
  -22.7079  -12.4193   21.0201 C   0  0  0  0  0  0  0  0  0  0  0  0
  -22.6411  -12.3588   23.9345 C   0  0  0  0  0  0  0  0  0  0  0  0
  -17.8355   -9.5501   21.9970 C   0  0  0  0  0  0  0  0  0  0  0  0
  -18.6882   -8.5507   22.3873 C   0  0  0  0  0  0  0  0  0  0  0  0
  -19.7373   -9.0955   23.0683 C   0  0  0  0  0  0  0  0  0  0  0  0
  -20.7110   -8.2488   23.5583 C   0  0  0  0  0  0  0  0  0  0  0  0
  -20.5976   -6.9034   23.3474 C   0  0  0  0  0  0  0  0  0  0  0  0
  -19.5149   -6.3280   22.6412 C   0  0  0  0  0  0  0  0  0  0  0  0
  -19.5264   -4.8611   22.4409 C   0  0  0  0  0  0  0  0  0  0  0  0
  -20.7262   -4.1731   22.6469 N   0  0  0  0  0  0  0  0  0  0  0  0
  -20.9894   -2.9132   22.0841 C   0  0  0  0  0  0  0  0  0  0  0  0
  -20.3764   -1.7610   22.8076 C   0  0  0  0  0  0  0  0  0  0  0  0
  -20.6943   -1.7808   24.2715 C   0  0  2  0  0  0  0  0  0  0  0  0
  -19.7992   -0.8912   24.9938 N   0  0  0  0  0  0  0  0  0  0  0  0
  -19.3968    0.3879   24.5706 C   0  0  0  0  0  0  0  0  0  0  0  0
  -19.3994    1.4873   25.4704 C   0  0  0  0  0  0  0  0  0  0  0  0
  -19.7591    1.4696   26.7669 C   0  0  0  0  0  0  0  0  0  0  0  0
  -19.7016    2.6221   27.4742 C   0  0  0  0  0  0  0  0  0  0  0  0
  -20.0361    2.8985   28.8927 C   0  0  0  0  0  0  0  0  0  0  0  0
  -21.3913    3.5820   28.9218 C   0  0  1  0  0  0  0  0  0  0  0  0
  -21.3189    4.8420   28.3268 F   0  0  0  0  0  0  0  0  0  0  0  0
  -22.3364    2.8625   28.2376 F   0  0  0  0  0  0  0  0  0  0  0  0
  -21.8249    3.7927   30.2035 F   0  0  0  0  0  0  0  0  0  0  0  0
  -19.1266    3.7897   26.3075 S   0  0  0  0  0  0  0  0  0  0  0  0
  -18.9931    2.6530   24.9186 C   0  0  0  0  0  0  0  0  0  0  0  0
  -18.6032    2.8317   23.6315 N   0  0  0  0  0  0  0  0  0  0  0  0
  -18.6136    1.7514   22.7973 C   0  0  0  0  0  0  0  0  0  0  0  0
  -18.2336    1.8445   21.4541 N   0  0  0  0  0  0  0  0  0  0  0  0
  -18.3520    0.6430   20.6223 C   0  0  0  0  0  0  0  0  0  0  0  0
  -19.0109    0.5880   23.3161 N   0  0  0  0  0  0  0  0  0  0  0  0
  -20.5639   -3.1420   24.8512 C   0  0  0  0  0  0  0  0  0  0  0  0
  -21.1951   -4.2446   24.0318 C   0  0  0  0  0  0  0  0  0  0  0  0
  -18.5541   -7.1696   22.1611 C   0  0  0  0  0  0  0  0  0  0  0  0
  -17.3508   -6.6587   21.4554 C   0  0  0  0  0  0  0  0  0  0  0  0
  1  2  3  0
  2  3  1  0
  3  4  1  0
  4  5  1  0
  5  6  1  0
  6  7  1  0
  7  8  1  0
  8  9  1  0
  9 10  1  0
 10 11  1  0
 11 12  2  0
 11 13  1  6
 11 14  2  0
 10 15  1  0
 15 16  1  0
  7 16  1  0
  6 17  1  1
  3 18  2  0
 18 19  1  0
 19 20  2  0
  4 20  1  0
 20 21  1  0
 21 22  2  0
 22 23  1  0
 23 24  1  0
 24 25  1  0
 25 26  1  0
 26 27  1  0
 27 28  1  0
 28 29  1  1
 29 30  1  0
 30 31  2  0
 31 32  1  0
 32 33  2  0
 33 34  1  0
 34 35  1  0
 35 36  1  6
 35 37  1  0
 35 38  1  0
 33 39  1  0
 31 40  1  0
 39 40  1  0
 40 41  2  0
 41 42  1  0
 42 43  1  0
 43 44  1  0
 42 45  2  0
 30 45  1  0
 28 46  1  0
 46 47  1  0
 25 47  1  0
 23 48  2  0
 19 48  1  0
 48 49  1  0
M  END
$$$$
