8HW_tmp.pdb
 OpenBabel08242515053D

 61 64  0  0  0  0  0  0  0  0999 V2000
   32.3270    6.0720  136.8030 N   0  0  0  0  0  0  0  0  0  0  0  0
   33.0940    8.2630  134.6630 C   0  0  0  0  0  0  0  0  0  0  0  0
   34.0600   11.8070  134.5850 O   0  0  0  0  0  0  0  0  0  0  0  0
   33.1820    9.5770  134.2340 C   0  0  0  0  0  0  0  0  0  0  0  0
   29.9600   19.3020  129.0160 O   0  0  0  0  0  0  0  0  0  0  0  0
   33.9270   10.4760  134.9770 C   0  0  0  0  0  0  0  0  0  0  0  0
   32.5870   18.5320  128.2800 O   0  0  0  0  0  0  0  0  0  0  0  0
   33.1670   12.2060  133.5850 C   0  0  0  0  0  0  0  0  0  0  0  0
   33.6580    6.1480  139.3720 O   0  0  0  0  0  0  0  0  0  0  0  0
   33.5550   13.6450  133.3050 C   0  0  0  0  0  0  0  0  0  0  0  0
   29.4890    5.4500  139.1260 O   0  0  0  0  0  0  0  0  0  0  0  0
   32.7080   14.4240  132.5320 C   0  0  0  0  0  0  0  0  0  0  0  0
   29.5260    7.5300  139.8050 O   0  0  0  0  0  0  0  0  0  0  0  0
   31.4480   13.7870  131.9860 C   0  0  0  0  0  0  0  0  0  0  0  0
   33.0380   15.7370  132.2720 C   0  0  0  0  0  0  0  0  0  0  0  0
   32.1600   16.6680  131.4250 C   0  0  0  0  0  0  0  0  0  0  0  0
   32.7230   17.1700  130.2630 C   0  0  0  0  0  0  0  0  0  0  0  0
   31.9760   18.0430  129.4550 C   0  0  0  0  0  0  0  0  0  0  0  0
   30.7120   18.4010  129.8280 C   0  0  0  0  0  0  0  0  0  0  0  0
   30.7270   19.9920  128.0330 C   0  0  0  0  0  0  0  0  0  0  0  0
   31.7220   19.0770  127.3440 C   0  0  0  0  0  0  0  0  0  0  0  0
   30.1110   17.9090  131.0100 C   0  0  0  0  0  0  0  0  0  0  0  0
   30.8680   17.0460  131.8150 C   0  0  0  0  0  0  0  0  0  0  0  0
   34.2110   16.2550  132.7950 C   0  0  0  0  0  0  0  0  0  0  0  0
   35.0530   15.4740  133.5720 C   0  0  0  0  0  0  0  0  0  0  0  0
   34.7200   14.1560  133.8320 C   0  0  0  0  0  0  0  0  0  0  0  0
   34.5740   10.0710  136.1290 C   0  0  0  0  0  0  0  0  0  0  0  0
   34.4930    8.7580  136.5560 C   0  0  0  0  0  0  0  0  0  0  0  0
   33.7400    7.8520  135.8190 C   0  0  0  0  0  0  0  0  0  0  0  0
   33.6290    6.3890  136.2540 C   0  0  0  0  0  0  0  0  0  0  0  0
   32.0310    6.9990  137.8720 C   0  0  0  0  0  0  0  0  0  0  0  0
   32.5170    6.4200  139.1970 C   0  0  0  0  0  0  0  0  0  0  0  0
   31.4780    6.1930  140.2880 C   0  0  0  0  0  0  0  0  0  0  0  0
   30.0790    6.4020  139.7080 C   0  0  0  0  0  0  0  0  0  0  0  0
   32.3720    7.3540  133.9510 F   0  0  0  0  0  0  0  0  0  0  0  0
   35.2930   10.9890  136.8320 F   0  0  0  0  0  0  0  0  0  0  0  0
   31.6188    6.1533  136.0734 H   0  0  0  0  0  0  0  0  0  0  0  0
   32.6996    9.8809  133.3738 H   0  0  0  0  0  0  0  0  0  0  0  0
   32.1561   12.1442  133.9302 H   0  0  0  0  0  0  0  0  0  0  0  0
   33.2186   11.5870  132.7138 H   0  0  0  0  0  0  0  0  0  0  0  0
   29.9687    8.2331  140.2381 H   0  0  0  0  0  0  0  0  0  0  0  0
   31.3935   12.7689  132.3107 H   0  0  0  0  0  0  0  0  0  0  0  0
   31.4663   13.8199  130.9167 H   0  0  0  0  0  0  0  0  0  0  0  0
   30.5936   14.3220  132.3447 H   0  0  0  0  0  0  0  0  0  0  0  0
   33.6832   16.9048  129.9933 H   0  0  0  0  0  0  0  0  0  0  0  0
   31.2612   20.7883  128.5078 H   0  0  0  0  0  0  0  0  0  0  0  0
   30.0533   20.3667  127.2909 H   0  0  0  0  0  0  0  0  0  0  0  0
   31.1949   18.2896  126.8469 H   0  0  0  0  0  0  0  0  0  0  0  0
   32.2848   19.6416  126.6304 H   0  0  0  0  0  0  0  0  0  0  0  0
   29.1488   18.1759  131.2708 H   0  0  0  0  0  0  0  0  0  0  0  0
   30.4723   16.6877  132.6982 H   0  0  0  0  0  0  0  0  0  0  0  0
   34.4623   17.2374  132.6035 H   0  0  0  0  0  0  0  0  0  0  0  0
   35.9241   15.8737  133.9547 H   0  0  0  0  0  0  0  0  0  0  0  0
   35.3357   13.5650  134.4122 H   0  0  0  0  0  0  0  0  0  0  0  0
   34.9854    8.4551  137.4109 H   0  0  0  0  0  0  0  0  0  0  0  0
   33.8046    5.7637  135.4037 H   0  0  0  0  0  0  0  0  0  0  0  0
   34.3555    6.2215  137.0215 H   0  0  0  0  0  0  0  0  0  0  0  0
   30.9746    7.1621  137.9202 H   0  0  0  0  0  0  0  0  0  0  0  0
   32.5275    7.9283  137.6856 H   0  0  0  0  0  0  0  0  0  0  0  0
   31.6409    6.8868  141.0861 H   0  0  0  0  0  0  0  0  0  0  0  0
   31.5645    5.1941  140.6618 H   0  0  0  0  0  0  0  0  0  0  0  0
  1 31  1  0  0  0  0
  1 30  1  0  0  0  0
  1 37  1  0  0  0  0
  2 35  1  0  0  0  0
  2  4  2  0  0  0  0
  2 29  1  0  0  0  0
  3  8  1  0  0  0  0
  3  6  1  0  0  0  0
  4  6  1  0  0  0  0
  4 38  1  0  0  0  0
  5 19  1  0  0  0  0
  5 20  1  0  0  0  0
  6 27  2  0  0  0  0
  7 21  1  0  0  0  0
  7 18  1  0  0  0  0
  8 10  1  0  0  0  0
  8 39  1  0  0  0  0
  8 40  1  0  0  0  0
  9 32  2  0  0  0  0
 10 12  2  0  0  0  0
 10 26  1  0  0  0  0
 11 34  2  0  0  0  0
 12 14  1  0  0  0  0
 12 15  1  0  0  0  0
 13 34  1  0  0  0  0
 13 41  1  0  0  0  0
 14 42  1  0  0  0  0
 14 43  1  0  0  0  0
 14 44  1  0  0  0  0
 15 16  1  0  0  0  0
 15 24  2  0  0  0  0
 16 17  2  0  0  0  0
 16 23  1  0  0  0  0
 17 18  1  0  0  0  0
 17 45  1  0  0  0  0
 18 19  2  0  0  0  0
 19 22  1  0  0  0  0
 20 21  1  0  0  0  0
 20 46  1  0  0  0  0
 20 47  1  0  0  0  0
 21 48  1  0  0  0  0
 21 49  1  0  0  0  0
 22 23  2  0  0  0  0
 22 50  1  0  0  0  0
 23 51  1  0  0  0  0
 24 25  1  0  0  0  0
 24 52  1  0  0  0  0
 25 26  2  0  0  0  0
 25 53  1  0  0  0  0
 26 54  1  0  0  0  0
 27 28  1  0  0  0  0
 27 36  1  0  0  0  0
 28 29  2  0  0  0  0
 28 55  1  0  0  0  0
 29 30  1  0  0  0  0
 30 56  1  0  0  0  0
 30 57  1  0  0  0  0
 31 32  1  0  0  0  0
 31 58  1  0  0  0  0
 31 59  1  0  0  0  0
 32 33  1  0  0  0  0
 33 34  1  0  0  0  0
 33 60  1  0  0  0  0
 33 61  1  0  0  0  0
M  END
$$$$
