REMARK  Name = 8HW_tmp.pdb
REMARK  12 active torsions:
REMARK  status: ('A' for Active; 'I' for Inactive)
REMARK    1  A    between atoms: N_1  and  C_30
REMARK    2  A    between atoms: N_1  and  C_31
REMARK    3  A    between atoms: O_3  and  C_6
REMARK    4  A    between atoms: O_3  and  C_8
REMARK    5  A    between atoms: C_8  and  C_10
REMARK    6  A    between atoms: C_12  and  C_14
REMARK    7  A    between atoms: O_13  and  C_34
REMARK    8  A    between atoms: C_15  and  C_16
REMARK    9  A    between atoms: C_29  and  C_30
REMARK   10  A    between atoms: C_31  and  C_32
REMARK   11  A    between atoms: C_32  and  C_33
REMARK   12  A    between atoms: C_33  and  C_34
REMARK                            x       y       z     vdW  Elec       q    Type
REMARK                         _______ _______ _______ _____ _____    ______ ____
ROOT
ATOM      1  O   UNL     1      34.060  11.807 134.585  0.00  0.00    -0.484 OA
ENDROOT
BRANCH   1   4
ATOM      2  C   UNL     1      33.094   8.263 134.663  0.00  0.00    +0.131 A 
ATOM      3  C   UNL     1      33.182   9.577 134.234  0.00  0.00    +0.087 A 
ATOM      4  C   UNL     1      33.927  10.476 134.977  0.00  0.00    +0.159 A 
ATOM      5  C   UNL     1      34.574  10.071 136.129  0.00  0.00    +0.165 A 
ATOM      6  C   UNL     1      34.493   8.758 136.556  0.00  0.00    +0.049 A 
ATOM      7  C   UNL     1      33.740   7.852 135.819  0.00  0.00    +0.005 A 
ATOM      8  F   UNL     1      32.372   7.354 133.951  0.00  0.00    -0.205 F 
ATOM      9  F   UNL     1      35.293  10.989 136.832  0.00  0.00    -0.202 F 
BRANCH   7  10
ATOM     10  C   UNL     1      33.629   6.389 136.254  0.00  0.00    +0.119 C 
BRANCH  10  11
ATOM     11  N   UNL     1      32.327   6.072 136.803  0.00  0.00    -0.305 NA
ATOM     12  H   UNL     1      31.619   6.153 136.073  0.00  0.00    +0.123 HD
BRANCH  11  13
ATOM     13  C   UNL     1      32.031   6.999 137.872  0.00  0.00    +0.156 C 
BRANCH  13  15
ATOM     14  O   UNL     1      33.658   6.148 139.372  0.00  0.00    -0.295 OA
ATOM     15  C   UNL     1      32.517   6.420 139.197  0.00  0.00    +0.158 C 
BRANCH  15  16
ATOM     16  C   UNL     1      31.478   6.193 140.288  0.00  0.00    +0.196 C 
BRANCH  16  18
ATOM     17  O   UNL     1      29.489   5.450 139.126  0.00  0.00    -0.251 OA
ATOM     18  C   UNL     1      30.079   6.402 139.708  0.00  0.00    +0.312 C 
BRANCH  18  19
ATOM     19  O   UNL     1      29.526   7.530 139.805  0.00  0.00    -0.480 OA
ATOM     20  H   UNL     1      29.969   8.233 140.238  0.00  0.00    +0.295 HD
ENDBRANCH  18  19
ENDBRANCH  16  18
ENDBRANCH  15  16
ENDBRANCH  13  15
ENDBRANCH  11  13
ENDBRANCH  10  11
ENDBRANCH   7  10
ENDBRANCH   1   4
BRANCH   1  21
ATOM     21  C   UNL     1      33.167  12.206 133.585  0.00  0.00    +0.265 C 
BRANCH  21  22
ATOM     22  C   UNL     1      33.555  13.645 133.305  0.00  0.00    -0.007 A 
ATOM     23  C   UNL     1      32.708  14.424 132.532  0.00  0.00    -0.036 A 
ATOM     24  C   UNL     1      31.448  13.787 131.986  0.00  0.00    +0.045 C 
ATOM     25  C   UNL     1      33.038  15.737 132.272  0.00  0.00    -0.014 A 
ATOM     26  C   UNL     1      34.211  16.255 132.795  0.00  0.00    +0.009 A 
ATOM     27  C   UNL     1      35.053  15.474 133.572  0.00  0.00    +0.001 A 
ATOM     28  C   UNL     1      34.720  14.156 133.832  0.00  0.00    +0.007 A 
BRANCH  25  31
ATOM     29  O   UNL     1      29.960  19.302 129.016  0.00  0.00    -0.485 OA
ATOM     30  O   UNL     1      32.587  18.532 128.280  0.00  0.00    -0.485 OA
ATOM     31  C   UNL     1      32.160  16.668 131.425  0.00  0.00    -0.014 A 
ATOM     32  C   UNL     1      32.723  17.170 130.263  0.00  0.00    +0.058 A 
ATOM     33  C   UNL     1      31.976  18.043 129.455  0.00  0.00    +0.163 A 
ATOM     34  C   UNL     1      30.712  18.401 129.828  0.00  0.00    +0.162 A 
ATOM     35  C   UNL     1      30.727  19.992 128.033  0.00  0.00    +0.270 C 
ATOM     36  C   UNL     1      31.722  19.077 127.344  0.00  0.00    +0.270 C 
ATOM     37  C   UNL     1      30.111  17.909 131.010  0.00  0.00    +0.050 A 
ATOM     38  C   UNL     1      30.868  17.046 131.815  0.00  0.00    +0.012 A 
ENDBRANCH  25  31
ENDBRANCH  21  22
ENDBRANCH   1  21
TORSDOF 11
