NS-C-142.sdf
     RDKit          3D

 26 29  0  0  0  0  0  0  0  0999 V2000
  -20.3472   -5.0103   22.4043 N   0  0  0  0  0  0  0  0  0  0  0  0
  -21.2025   -4.6157   21.2894 C   0  0  0  0  0  0  0  0  0  0  0  0
  -21.7571   -3.2631   21.7216 C   0  0  0  0  0  0  0  0  0  0  0  0
  -20.5927   -2.6378   22.4809 C   0  0  2  0  0  0  0  0  0  0  0  0
  -19.9787   -3.8478   23.2228 C   0  0  0  0  0  0  0  0  0  0  0  0
  -18.3073   -6.3140   22.2549 C   0  0  0  0  0  0  0  0  0  0  0  0
  -17.6187   -7.5310   22.3335 C   0  0  0  0  0  0  0  0  0  0  0  0
  -18.3104   -8.6916   22.6415 C   0  0  0  0  0  0  0  0  0  0  0  0
  -19.6726   -8.6585   22.8742 C   0  0  0  0  0  0  0  0  0  0  0  0
  -20.3462   -7.4401   22.7927 C   0  0  0  0  0  0  0  0  0  0  0  0
  -19.6955   -6.2262   22.4746 C   0  0  0  0  0  0  0  0  0  0  0  0
  -17.6520   -9.8550   22.7175 F   0  0  0  0  0  0  0  0  0  0  0  0
  -21.6700   -7.4671   23.0210 F   0  0  0  0  0  0  0  0  0  0  0  0
  -20.8421   -0.2374   22.9480 C   0  0  0  0  0  0  0  0  0  0  0  0
  -20.2212    0.0937   21.9455 O   0  0  0  0  0  0  0  0  0  0  0  0
  -21.0277   -1.5441   23.3368 N   0  0  0  0  0  0  0  0  0  0  0  0
  -21.4578   -1.7407   24.2003 H   0  0  0  0  0  0  0  0  0  0  0  0
  -21.5103    0.7779   23.8166 C   0  0  0  0  0  0  0  0  0  0  0  0
  -22.0271    1.9135   23.3040 C   0  0  0  0  0  0  0  0  0  0  0  0
  -22.6633    2.8059   24.1613 N   0  0  0  0  0  0  0  0  0  0  0  0
  -22.8093    2.6026   25.5241 C   0  0  0  0  0  0  0  0  0  0  0  0
  -22.2932    1.3947   26.0644 C   0  0  0  0  0  0  0  0  0  0  0  0
  -21.6769    0.5163   25.2482 C   0  0  0  0  0  0  0  0  0  0  0  0
  -23.2581    4.0115   23.9182 C   0  0  0  0  0  0  0  0  0  0  0  0
  -23.7197    4.5199   25.0388 N   0  0  0  0  0  0  0  0  0  0  0  0
  -23.4370    3.6297   26.0537 N   0  0  0  0  0  0  0  0  0  0  0  0
 14 18  1  0
 14 15  2  0
 18 19  2  0
 19 20  1  0
 20 21  1  0
 21 22  1  0
 22 23  2  0
 23 18  1  0
 20 24  1  0
 24 25  2  0
 25 26  1  0
 26 21  2  0
  6  7  2  0
  7  8  1  0
  8  9  2  0
  9 10  1  0
 10 11  2  0
 11  6  1  0
  8 12  1  0
 11  1  1  0
  1  2  1  0
  2  3  1  0
  3  4  1  0
  4  5  1  0
  5  1  1  0
  4 16  1  1
 14 16  1  0
 10 13  1  0
 16 17  1  0
M  END
>  <minimizedAffinity>  (1) 
-6.67402

>  <CNNscore>  (1) 
0.6216455102

>  <CNNaffinity>  (1) 
5.5614757538

>  <CNN_VS>  (1) 
3.4572663307

>  <CNNaffinity_variance>  (1) 
0.0181576218

$$$$
