NS-C-142.sdf
     RDKit          3D

 25 28  0  0  1  0  0  0  0  0999 V2000
  -17.2522    2.3009   23.3850 C   0  0  0  0  0  0  0  0  0  0  0  0
  -16.9470    3.3657   22.4290 C   0  0  0  0  0  0  0  0  0  0  0  0
  -16.4337    2.0957   24.3430 O   0  0  0  0  0  0  0  0  0  0  0  0
  -16.1722    4.4440   22.8240 C   0  0  0  0  0  0  0  0  0  0  0  0
  -15.8232    5.4723   22.0593 N   0  0  0  0  0  0  0  0  0  0  0  0
  -16.2724    5.4591   20.7676 C   0  0  0  0  0  0  0  0  0  0  0  0
  -17.0485    4.4251   20.2915 C   0  0  0  0  0  0  0  0  0  0  0  0
  -17.3897    3.3646   21.1350 C   0  0  0  0  0  0  0  0  0  0  0  0
  -15.1055    6.6006   22.2004 C   0  0  0  0  0  0  0  0  0  0  0  0
  -15.1012    7.2743   21.0430 N   0  0  0  0  0  0  0  0  0  0  0  0
  -15.8153    6.5720   20.1724 N   0  0  0  0  0  0  0  0  0  0  0  0
  -22.2427    2.3037   27.7776 C   0  0  0  0  0  0  0  0  0  0  0  0
  -22.7175    2.8550   28.9669 C   0  0  0  0  0  0  0  0  0  0  0  0
  -21.8441    3.3696   29.9070 C   0  0  0  0  0  0  0  0  0  0  0  0
  -20.5003    3.3140   29.6198 C   0  0  0  0  0  0  0  0  0  0  0  0
  -20.0170    2.7693   28.4430 C   0  0  0  0  0  0  0  0  0  0  0  0
  -20.8914    2.2548   27.5031 C   0  0  0  0  0  0  0  0  0  0  0  0
  -22.3021    3.9111   31.0741 F   0  0  0  0  0  0  0  0  0  0  0  0
  -20.3929    1.6915   26.2862 N   0  0  0  0  0  0  0  0  0  0  0  0
  -21.0440    0.5565   25.6490 C   0  0  0  0  0  0  0  0  0  0  0  0
  -20.4298    0.5179   24.2764 C   0  0  0  0  0  0  0  0  0  0  0  0
  -19.0006    1.0118   24.5405 C   0  0  2  0  0  0  0  0  0  0  0  0
  -19.2381    2.1110   25.5196 C   0  0  0  0  0  0  0  0  0  0  0  0
  -18.4085    1.4909   23.2972 N   0  0  0  0  0  0  0  0  0  0  0  0
  -18.6769    2.7185   28.1659 F   0  0  0  0  0  0  0  0  0  0  0  0
  1  2  1  0
  1  3  2  0
  2  4  2  0
  4  5  1  0
  5  6  1  0
  6  7  1  0
  7  8  2  0
  8  2  1  0
  5  9  1  0
  9 10  2  0
 10 11  1  0
 11  6  2  0
 12 13  2  0
 13 14  1  0
 14 15  2  0
 15 16  1  0
 16 17  2  0
 17 12  1  0
 14 18  1  0
 17 19  1  0
 19 20  1  0
 20 21  1  0
 21 22  1  0
 22 23  1  0
 23 19  1  0
 22 24  1  6
  1 24  1  0
 16 25  1  0
M  END
$$$$
