ziftomenib.sdf
     RDKit          3D

 49 54  0  0  1  0  0  0  0  0999 V2000
  -17.3122  -12.5015   22.8805 N   0  0  0  0  0  0  0  0  0  0  0  0
  -17.9971  -11.5628   22.9770 C   0  0  0  0  0  0  0  0  0  0  0  0
  -18.8377  -10.4183   23.0807 C   0  0  0  0  0  0  0  0  0  0  0  0
  -20.0107  -10.2831   23.7557 N   0  0  0  0  0  0  0  0  0  0  0  0
  -20.5759  -11.3721   24.5109 C   0  0  0  0  0  0  0  0  0  0  0  0
  -22.0396  -11.5842   24.2248 C   0  0  1  0  0  0  0  0  0  0  0  0
  -22.1742  -12.4994   23.1145 N   0  0  0  0  0  0  0  0  0  0  0  0
  -23.4339  -13.1711   23.0911 C   0  0  0  0  0  0  0  0  0  0  0  0
  -24.2238  -12.9039   21.8300 C   0  0  0  0  0  0  0  0  0  0  0  0
  -23.4545  -13.2612   20.6869 N   0  0  0  0  0  0  0  0  0  0  0  0
  -23.4542  -14.9219   20.3193 S   0  0  1  0  0  6  0  0  0  0  0  0
  -23.6535  -15.7976   21.5485 O   0  0  0  0  0  0  0  0  0  0  0  0
  -24.7546  -15.2682   19.1480 C   0  0  0  0  0  0  0  0  0  0  0  0
  -22.1578  -15.3688   19.6912 O   0  0  0  0  0  0  0  0  0  0  0  0
  -22.1950  -12.6065   20.6302 C   0  0  0  0  0  0  0  0  0  0  0  0
  -21.6936  -11.9884   21.8855 C   0  0  0  0  0  0  0  0  0  0  0  0
  -22.7257  -12.0470   25.4605 C   0  0  0  0  0  0  0  0  0  0  0  0
  -18.5432   -9.1999   22.4585 C   0  0  0  0  0  0  0  0  0  0  0  0
  -19.5744   -8.3617   22.7932 C   0  0  0  0  0  0  0  0  0  0  0  0
  -20.4610   -9.0332   23.5833 C   0  0  0  0  0  0  0  0  0  0  0  0
  -21.5749   -8.3574   24.0391 C   0  0  0  0  0  0  0  0  0  0  0  0
  -21.7558   -7.0492   23.6876 C   0  0  0  0  0  0  0  0  0  0  0  0
  -20.8437   -6.3439   22.8676 C   0  0  0  0  0  0  0  0  0  0  0  0
  -21.1720   -4.9423   22.5214 C   0  0  0  0  0  0  0  0  0  0  0  0
  -20.2204   -4.1911   21.8245 N   0  0  0  0  0  0  0  0  0  0  0  0
  -18.9223   -3.9643   22.3111 C   0  0  0  0  0  0  0  0  0  0  0  0
  -18.8137   -2.8806   23.3313 C   0  0  0  0  0  0  0  0  0  0  0  0
  -19.4533   -1.6065   22.8708 C   0  0  2  0  0  0  0  0  0  0  0  0
  -19.6633   -0.7119   23.9978 N   0  0  0  0  0  0  0  0  0  0  0  0
  -19.3450    0.6573   24.0284 C   0  0  0  0  0  0  0  0  0  0  0  0
  -19.4365    1.3997   25.2363 C   0  0  0  0  0  0  0  0  0  0  0  0
  -19.8119    0.9370   26.4428 C   0  0  0  0  0  0  0  0  0  0  0  0
  -19.8445    1.7961   27.4881 C   0  0  0  0  0  0  0  0  0  0  0  0
  -20.2170    1.5724   28.9065 C   0  0  0  0  0  0  0  0  0  0  0  0
  -21.1349    2.7064   29.3261 C   0  0  1  0  0  0  0  0  0  0  0  0
  -21.5350    2.5490   30.6535 F   0  0  0  0  0  0  0  0  0  0  0  0
  -20.5127    3.9240   29.2301 F   0  0  0  0  0  0  0  0  0  0  0  0
  -22.2855    2.7276   28.5837 F   0  0  0  0  0  0  0  0  0  0  0  0
  -19.3361    3.3139   26.7860 S   0  0  0  0  0  0  0  0  0  0  0  0
  -19.1048    2.7042   25.1087 C   0  0  0  0  0  0  0  0  0  0  0  0
  -18.7106    3.3176   23.9645 N   0  0  0  0  0  0  0  0  0  0  0  0
  -18.6343    2.5710   22.8244 C   0  0  0  0  0  0  0  0  0  0  0  0
  -18.2432    3.1213   21.5991 N   0  0  0  0  0  0  0  0  0  0  0  0
  -18.0260    2.2068   20.4739 C   0  0  0  0  0  0  0  0  0  0  0  0
  -18.9568    1.2798   22.9220 N   0  0  0  0  0  0  0  0  0  0  0  0
  -20.7654   -1.8466   22.2176 C   0  0  0  0  0  0  0  0  0  0  0  0
  -20.7796   -2.9815   21.2188 C   0  0  0  0  0  0  0  0  0  0  0  0
  -19.7433   -7.0163   22.4218 C   0  0  0  0  0  0  0  0  0  0  0  0
  -18.6997   -6.3486   21.6019 C   0  0  0  0  0  0  0  0  0  0  0  0
  1  2  3  0
  2  3  1  0
  3  4  1  0
  4  5  1  0
  5  6  1  0
  6  7  1  0
  7  8  1  0
  8  9  1  0
  9 10  1  0
 10 11  1  0
 11 12  2  0
 11 13  1  6
 11 14  2  0
 10 15  1  0
 15 16  1  0
  7 16  1  0
  6 17  1  1
  3 18  2  0
 18 19  1  0
 19 20  2  0
  4 20  1  0
 20 21  1  0
 21 22  2  0
 22 23  1  0
 23 24  1  0
 24 25  1  0
 25 26  1  0
 26 27  1  0
 27 28  1  0
 28 29  1  1
 29 30  1  0
 30 31  2  0
 31 32  1  0
 32 33  2  0
 33 34  1  0
 34 35  1  0
 35 36  1  1
 35 37  1  0
 35 38  1  0
 33 39  1  0
 31 40  1  0
 39 40  1  0
 40 41  2  0
 41 42  1  0
 42 43  1  0
 43 44  1  0
 42 45  2  0
 30 45  1  0
 28 46  1  0
 46 47  1  0
 25 47  1  0
 23 48  2  0
 19 48  1  0
 48 49  1  0
M  END
$$$$
