ziftomenib.sdf
     RDKit          3D

 49 54  0  0  1  0  0  0  0  0999 V2000
  -16.2039  -11.4892   20.9095 N   0  0  0  0  0  0  0  0  0  0  0  0
  -16.9387  -10.7316   21.4052 C   0  0  0  0  0  0  0  0  0  0  0  0
  -17.8469   -9.8114   22.0017 C   0  0  0  0  0  0  0  0  0  0  0  0
  -18.6968  -10.0106   23.0447 N   0  0  0  0  0  0  0  0  0  0  0  0
  -18.7728  -11.2789   23.7237 C   0  0  0  0  0  0  0  0  0  0  0  0
  -20.0837  -11.9858   23.4971 C   0  0  1  0  0  0  0  0  0  0  0  0
  -20.0980  -12.5332   22.1597 N   0  0  0  0  0  0  0  0  0  0  0  0
  -20.2381  -13.9540   22.1369 C   0  0  0  0  0  0  0  0  0  0  0  0
  -21.4721  -14.4151   21.3951 C   0  0  0  0  0  0  0  0  0  0  0  0
  -21.4654  -13.9001   20.0682 N   0  0  0  0  0  0  0  0  0  0  0  0
  -20.4978  -14.7689   18.9718 S   0  0  1  0  0  6  0  0  0  0  0  0
  -19.4421  -15.6199   19.6638 O   0  0  0  0  0  0  0  0  0  0  0  0
  -21.5345  -15.8298   17.9806 C   0  0  0  0  0  0  0  0  0  0  0  0
  -19.7518  -13.8629   18.0245 O   0  0  0  0  0  0  0  0  0  0  0  0
  -21.3561  -12.4847   20.0154 C   0  0  0  0  0  0  0  0  0  0  0  0
  -20.8823  -11.7936   21.2430 C   0  0  0  0  0  0  0  0  0  0  0  0
  -20.2872  -13.0082   24.5579 C   0  0  0  0  0  0  0  0  0  0  0  0
  -17.9902   -8.4910   21.5610 C   0  0  0  0  0  0  0  0  0  0  0  0
  -18.9421   -7.9366   22.3763 C   0  0  0  0  0  0  0  0  0  0  0  0
  -19.3639   -8.8720   23.2753 C   0  0  0  0  0  0  0  0  0  0  0  0
  -20.3224   -8.5074   24.1992 C   0  0  0  0  0  0  0  0  0  0  0  0
  -20.8168   -7.2335   24.1852 C   0  0  0  0  0  0  0  0  0  0  0  0
  -20.3876   -6.2561   23.2565 C   0  0  0  0  0  0  0  0  0  0  0  0
  -21.0296   -4.9233   23.3148 C   0  0  0  0  0  0  0  0  0  0  0  0
  -20.6942   -3.9824   22.3361 N   0  0  0  0  0  0  0  0  0  0  0  0
  -19.4276   -3.3795   22.2600 C   0  0  0  0  0  0  0  0  0  0  0  0
  -19.2113   -2.2492   23.2100 C   0  0  0  0  0  0  0  0  0  0  0  0
  -20.3058   -1.2292   23.1314 C   0  0  2  0  0  0  0  0  0  0  0  0
  -20.2707   -0.3615   24.2977 N   0  0  0  0  0  0  0  0  0  0  0  0
  -19.7171    0.9303   24.3425 C   0  0  0  0  0  0  0  0  0  0  0  0
  -19.8606    1.7448   25.4977 C   0  0  0  0  0  0  0  0  0  0  0  0
  -20.4990    1.4244   26.6382 C   0  0  0  0  0  0  0  0  0  0  0  0
  -20.5385    2.3340   27.6396 C   0  0  0  0  0  0  0  0  0  0  0  0
  -21.1638    2.2602   28.9828 C   0  0  0  0  0  0  0  0  0  0  0  0
  -22.3757    3.1744   28.9777 C   0  0  1  0  0  0  0  0  0  0  0  0
  -23.0056    3.1621   30.2226 F   0  0  0  0  0  0  0  0  0  0  0  0
  -22.0294    4.4733   28.7095 F   0  0  0  0  0  0  0  0  0  0  0  0
  -23.3172    2.7622   28.0727 F   0  0  0  0  0  0  0  0  0  0  0  0
  -19.6581    3.6967   26.9893 S   0  0  0  0  0  0  0  0  0  0  0  0
  -19.2808    2.9615   25.3906 C   0  0  0  0  0  0  0  0  0  0  0  0
  -18.6065    3.4301   24.3106 N   0  0  0  0  0  0  0  0  0  0  0  0
  -18.4892    2.6181   23.2197 C   0  0  0  0  0  0  0  0  0  0  0  0
  -17.8166    3.0207   22.0610 N   0  0  0  0  0  0  0  0  0  0  0  0
  -17.6872    2.0498   20.9700 C   0  0  0  0  0  0  0  0  0  0  0  0
  -19.0529    1.4111   23.2985 N   0  0  0  0  0  0  0  0  0  0  0  0
  -21.6492   -1.8585   23.0608 C   0  0  0  0  0  0  0  0  0  0  0  0
  -21.7607   -3.0108   22.0885 C   0  0  0  0  0  0  0  0  0  0  0  0
  -19.4383   -6.6215   22.3470 C   0  0  0  0  0  0  0  0  0  0  0  0
  -18.8826   -5.6530   21.3670 C   0  0  0  0  0  0  0  0  0  0  0  0
  1  2  3  0
  2  3  1  0
  3  4  1  0
  4  5  1  0
  5  6  1  0
  6  7  1  0
  7  8  1  0
  8  9  1  0
  9 10  1  0
 10 11  1  0
 11 12  2  0
 11 13  1  6
 11 14  2  0
 10 15  1  0
 15 16  1  0
  7 16  1  0
  6 17  1  1
  3 18  2  0
 18 19  1  0
 19 20  2  0
  4 20  1  0
 20 21  1  0
 21 22  2  0
 22 23  1  0
 23 24  1  0
 24 25  1  0
 25 26  1  0
 26 27  1  0
 27 28  1  0
 28 29  1  1
 29 30  1  0
 30 31  2  0
 31 32  1  0
 32 33  2  0
 33 34  1  0
 34 35  1  0
 35 36  1  1
 35 37  1  0
 35 38  1  0
 33 39  1  0
 31 40  1  0
 39 40  1  0
 40 41  2  0
 41 42  1  0
 42 43  1  0
 43 44  1  0
 42 45  2  0
 30 45  1  0
 28 46  1  0
 46 47  1  0
 25 47  1  0
 23 48  2  0
 19 48  1  0
 48 49  1  0
M  END
$$$$
