NS-C-142.sdf
     RDKit          3D

 25 28  0  0  1  0  0  0  0  0999 V2000
  -19.2018   -2.6180   24.0420 C   0  0  0  0  0  0  0  0  0  0  0  0
  -18.8395   -3.7154   23.1447 C   0  0  0  0  0  0  0  0  0  0  0  0
  -18.3102   -2.1678   24.8372 O   0  0  0  0  0  0  0  0  0  0  0  0
  -19.8326   -4.4266   22.4911 C   0  0  0  0  0  0  0  0  0  0  0  0
  -19.6408   -5.4399   21.6543 N   0  0  0  0  0  0  0  0  0  0  0  0
  -18.3446   -5.8091   21.4215 C   0  0  0  0  0  0  0  0  0  0  0  0
  -17.2953   -5.1558   22.0300 C   0  0  0  0  0  0  0  0  0  0  0  0
  -17.5478   -4.0946   22.9033 C   0  0  0  0  0  0  0  0  0  0  0  0
  -20.4083   -6.2640   20.9195 C   0  0  0  0  0  0  0  0  0  0  0  0
  -19.6277   -7.1206   20.2484 N   0  0  0  0  0  0  0  0  0  0  0  0
  -18.3690   -6.8375   20.5593 N   0  0  0  0  0  0  0  0  0  0  0  0
  -22.2510    2.1671   28.0260 C   0  0  0  0  0  0  0  0  0  0  0  0
  -22.0801    3.3066   28.8108 C   0  0  0  0  0  0  0  0  0  0  0  0
  -20.8478    3.9271   28.8990 C   0  0  0  0  0  0  0  0  0  0  0  0
  -19.8091    3.3760   28.1857 C   0  0  0  0  0  0  0  0  0  0  0  0
  -19.9665    2.2453   27.4035 C   0  0  0  0  0  0  0  0  0  0  0  0
  -21.1995    1.6253   27.3158 C   0  0  0  0  0  0  0  0  0  0  0  0
  -20.6730    5.0437   29.6657 F   0  0  0  0  0  0  0  0  0  0  0  0
  -21.3633    0.4564   26.5074 N   0  0  0  0  0  0  0  0  0  0  0  0
  -22.6533   -0.2047   26.3760 C   0  0  0  0  0  0  0  0  0  0  0  0
  -22.4600   -1.1346   25.2095 C   0  0  0  0  0  0  0  0  0  0  0  0
  -20.9837   -1.5322   25.3458 C   0  0  2  0  0  0  0  0  0  0  0  0
  -20.3566   -0.2348   25.7291 C   0  0  0  0  0  0  0  0  0  0  0  0
  -20.4900   -2.0345   24.0691 N   0  0  0  0  0  0  0  0  0  0  0  0
  -18.9260    1.7038   26.6968 F   0  0  0  0  0  0  0  0  0  0  0  0
  1  2  1  0
  1  3  2  0
  2  4  2  0
  4  5  1  0
  5  6  1  0
  6  7  1  0
  7  8  2  0
  8  2  1  0
  5  9  1  0
  9 10  2  0
 10 11  1  0
 11  6  2  0
 12 13  2  0
 13 14  1  0
 14 15  2  0
 15 16  1  0
 16 17  2  0
 17 12  1  0
 14 18  1  0
 17 19  1  0
 19 20  1  0
 20 21  1  0
 21 22  1  0
 22 23  1  0
 23 19  1  0
 22 24  1  6
  1 24  1  0
 16 25  1  0
M  END
$$$$
