ziftomenib.sdf


 51 56  0  0  0  0  0  0  0  0999 V2000
  -28.8100    1.4135   23.4012 C   0  0  0  0  0  0  0  0  0  0  0  0
  -24.6838    0.5487   18.9609 C   0  0  0  0  0  0  0  0  0  0  0  0
  -25.4660   -0.5476   19.2434 N   0  0  0  0  0  0  0  0  0  0  0  0
  -25.1014    1.5771   19.7753 C   0  0  0  0  0  0  0  0  0  0  0  0
  -26.1641    1.0994   20.5982 C   0  0  0  0  0  0  0  0  0  0  0  0
  -26.3746   -0.2371   20.2415 C   0  0  0  0  0  0  0  0  0  0  0  0
  -27.3592   -1.0198   20.8556 C   0  0  0  0  0  0  0  0  0  0  0  0
  -28.1280   -0.4319   21.8587 C   0  0  0  0  0  0  0  0  0  0  0  0
  -27.9424    0.9018   22.2577 C   0  0  0  0  0  0  0  0  0  0  0  0
  -26.9519    1.6988   21.6220 C   0  0  0  0  0  0  0  0  0  0  0  0
  -26.7417    3.1323   22.0343 C   0  0  0  0  0  0  0  0  0  0  0  0
  -22.7357    0.5831   17.2674 N   0  0  0  0  0  0  0  0  0  0  0  0
  -23.6329    0.5841   18.0011 C   0  0  0  0  0  0  0  0  0  0  0  0
  -25.2949   -1.8667   18.6376 C   0  0  0  0  0  0  0  0  0  0  0  0
  -24.6285   -1.8481   17.2306 C   0  0  0  0  0  0  0  0  0  0  0  0
  -25.6323   -2.3964   16.1961 C   0  0  0  0  0  0  0  0  0  0  0  0
  -23.3704   -2.6361   17.1449 N   0  0  0  0  0  0  0  0  0  0  0  0
  -23.4468   -3.9365   17.8621 C   0  0  0  0  0  0  0  0  0  0  0  0
  -23.4975   -5.1885   16.9602 C   0  0  0  0  0  0  0  0  0  0  0  0
  -22.3193   -5.2437   16.0587 N   0  0  0  0  0  0  0  0  0  0  0  0
  -21.7758   -3.9211   15.6630 C   0  0  0  0  0  0  0  0  0  0  0  0
  -22.8509   -2.8229   15.7756 C   0  0  0  0  0  0  0  0  0  0  0  0
  -22.2344   -6.5139   14.9575 S   0  0  0  0  0  0  0  0  0  0  0  0
  -21.7439   -5.9840   13.7034 O   0  0  0  0  0  0  0  0  0  0  0  0
  -20.9569   -7.5500   15.6485 C   0  0  0  0  0  0  0  0  0  0  0  0
  -23.4814   -7.2452   15.0292 O   0  0  0  0  0  0  0  0  0  0  0  0
  -28.5987    0.6760   24.6580 N   0  0  0  0  0  0  0  0  0  0  0  0
  -28.6385    1.5314   25.8513 C   0  0  0  0  0  0  0  0  0  0  0  0
  -27.3958    2.4037   26.0333 C   0  0  0  0  0  0  0  0  0  0  0  0
  -26.1133    1.5652   25.9975 C   0  0  0  0  0  0  0  0  0  0  0  0
  -26.0923    0.6886   24.7415 C   0  0  0  0  0  0  0  0  0  0  0  0
  -27.3742   -0.1323   24.6329 C   0  0  0  0  0  0  0  0  0  0  0  0
  -24.9673    2.4793   26.0084 N   0  0  0  0  0  0  0  0  0  0  0  0
  -24.6535    2.9167   25.1841 H   0  0  0  0  0  0  0  0  0  0  0  0
  -24.3390    2.7047   27.2340 C   0  0  0  0  0  0  0  0  0  0  0  0
  -22.9908    3.0971   27.3155 C   0  0  0  0  0  0  0  0  0  0  0  0
  -21.9748    3.3602   26.3329 C   0  0  0  0  0  0  0  0  0  0  0  0
  -20.7656    3.7255   26.8914 C   0  0  0  0  0  0  0  0  0  0  0  0
  -20.8556    3.7549   28.6019 S   0  0  0  0  0  0  0  0  0  0  0  0
  -22.4931    3.2811   28.5919 C   0  0  0  0  0  0  0  0  0  0  0  0
  -23.1629    3.1253   29.7414 N   0  0  0  0  0  0  0  0  0  0  0  0
  -24.4330    2.7646   29.5696 C   0  0  0  0  0  0  0  0  0  0  0  0
  -25.0289    2.5570   28.3861 N   0  0  0  0  0  0  0  0  0  0  0  0
  -25.1611    2.5976   30.7436 N   0  0  0  0  0  0  0  0  0  0  0  0
  -25.6870    1.2616   30.9187 C   0  0  0  0  0  0  0  0  0  0  0  0
  -25.3050    3.3218   31.3949 H   0  0  0  0  0  0  0  0  0  0  0  0
  -19.4792    4.0682   26.1930 C   0  0  0  0  0  0  0  0  0  0  0  0
  -18.6055    2.8564   25.9233 C   0  0  0  0  0  0  0  0  0  0  0  0
  -18.8800    1.8432   26.7761 F   0  0  0  0  0  0  0  0  0  0  0  0
  -18.7474    2.3960   24.6623 F   0  0  0  0  0  0  0  0  0  0  0  0
  -17.3002    3.1768   26.0908 F   0  0  0  0  0  0  0  0  0  0  0  0
 12 13  3  0
 13  2  1  0
  2  3  1  0
  3 14  1  0
 14 15  1  0
 15 17  1  0
 17 18  1  0
 18 19  1  0
 19 20  1  0
 20 23  1  0
 23 24  2  0
 23 25  1  0
 23 26  2  0
 20 21  1  0
 21 22  1  0
 17 22  1  0
 15 16  1  0
  2  4  2  0
  4  5  1  0
  5  6  2  0
  3  6  1  0
  6  7  1  0
  7  8  2  0
  8  9  1  0
  9  1  1  0
  1 27  1  0
 27 28  1  0
 28 29  1  0
 29 30  1  0
 30 33  1  0
 33 35  1  0
 35 36  2  0
 36 37  1  0
 37 38  2  0
 38 47  1  0
 47 48  1  0
 48 49  1  0
 48 50  1  0
 48 51  1  0
 38 39  1  0
 36 40  1  0
 39 40  1  0
 40 41  2  0
 41 42  1  0
 42 44  1  0
 44 45  1  0
 42 43  2  0
 35 43  1  0
 30 31  1  0
 31 32  1  0
 27 32  1  0
  9 10  2  0
  5 10  1  0
 10 11  1  0
 33 34  1  0
 44 46  1  0
M  END
> <minimizedAffinity>
-8.49416

> <CNNscore>
0.2214074284

> <CNNaffinity>
6.6826930046

> <CNN_VS>
1.4795979261

> <CNNaffinity_variance>
1.1093071699

$$$$
ziftomenib.sdf


 51 56  0  0  0  0  0  0  0  0999 V2000
  -21.0647   -0.5957   19.7783 C   0  0  0  0  0  0  0  0  0  0  0  0
  -19.2124    2.6621   24.6203 C   0  0  0  0  0  0  0  0  0  0  0  0
  -20.4310    2.0417   24.7741 N   0  0  0  0  0  0  0  0  0  0  0  0
  -18.7291    2.3244   23.3763 C   0  0  0  0  0  0  0  0  0  0  0  0
  -19.6840    1.4819   22.7335 C   0  0  0  0  0  0  0  0  0  0  0  0
  -20.7418    1.3183   23.6347 C   0  0  0  0  0  0  0  0  0  0  0  0
  -21.8617    0.5375   23.3261 C   0  0  0  0  0  0  0  0  0  0  0  0
  -21.9070   -0.0712   22.0729 C   0  0  0  0  0  0  0  0  0  0  0  0
  -20.8743    0.0765   21.1326 C   0  0  0  0  0  0  0  0  0  0  0  0
  -19.7314    0.8577   21.4544 C   0  0  0  0  0  0  0  0  0  0  0  0
  -18.6124    1.0238   20.4596 C   0  0  0  0  0  0  0  0  0  0  0  0
  -18.0781    4.1327   26.4134 N   0  0  0  0  0  0  0  0  0  0  0  0
  -18.5900    3.5034   25.5856 C   0  0  0  0  0  0  0  0  0  0  0  0
  -21.3025    2.2022   25.9364 C   0  0  0  0  0  0  0  0  0  0  0  0
  -21.8508    3.6457   26.1362 C   0  0  0  0  0  0  0  0  0  0  0  0
  -21.6987    4.0359   27.6205 C   0  0  0  0  0  0  0  0  0  0  0  0
  -23.2733    3.8147   25.7375 N   0  0  0  0  0  0  0  0  0  0  0  0
  -23.4328    4.4205   24.3888 C   0  0  0  0  0  0  0  0  0  0  0  0
  -23.9411    3.4640   23.2887 C   0  0  0  0  0  0  0  0  0  0  0  0
  -25.2451    2.8632   23.6660 N   0  0  0  0  0  0  0  0  0  0  0  0
  -25.4476    2.6803   25.1244 C   0  0  0  0  0  0  0  0  0  0  0  0
  -24.0994    2.5977   25.8660 C   0  0  0  0  0  0  0  0  0  0  0  0
  -25.9270    1.7441   22.6096 S   0  0  0  0  0  0  0  0  0  0  0  0
  -27.3492    2.0033   22.5434 O   0  0  0  0  0  0  0  0  0  0  0  0
  -25.2159    2.2010   21.0385 C   0  0  0  0  0  0  0  0  0  0  0  0
  -25.4159    0.4363   22.9608 O   0  0  0  0  0  0  0  0  0  0  0  0
  -22.3918   -1.2150   19.6251 N   0  0  0  0  0  0  0  0  0  0  0  0
  -22.5471   -2.4605   20.3879 C   0  0  0  0  0  0  0  0  0  0  0  0
  -21.8056   -3.6550   19.7866 C   0  0  0  0  0  0  0  0  0  0  0  0
  -22.1763   -3.8599   18.3135 C   0  0  0  0  0  0  0  0  0  0  0  0
  -21.9991   -2.5502   17.5389 C   0  0  0  0  0  0  0  0  0  0  0  0
  -22.7573   -1.4131   18.2178 C   0  0  0  0  0  0  0  0  0  0  0  0
  -21.3093   -4.9063   17.7637 N   0  0  0  0  0  0  0  0  0  0  0  0
  -20.5383   -4.6849   17.1930 H   0  0  0  0  0  0  0  0  0  0  0  0
  -21.6206   -6.2291   18.0817 C   0  0  0  0  0  0  0  0  0  0  0  0
  -20.7680   -7.0231   18.8697 C   0  0  0  0  0  0  0  0  0  0  0  0
  -19.5041   -6.7833   19.5113 C   0  0  0  0  0  0  0  0  0  0  0  0
  -19.0278   -7.8854   20.1941 C   0  0  0  0  0  0  0  0  0  0  0  0
  -20.1069   -9.2096   20.0648 S   0  0  0  0  0  0  0  0  0  0  0  0
  -21.1954   -8.3167   19.1036 C   0  0  0  0  0  0  0  0  0  0  0  0
  -22.3280   -8.8772   18.6596 N   0  0  0  0  0  0  0  0  0  0  0  0
  -23.0781   -8.0515   17.9329 C   0  0  0  0  0  0  0  0  0  0  0  0
  -22.7723   -6.7791   17.6387 N   0  0  0  0  0  0  0  0  0  0  0  0
  -24.2657   -8.5996   17.4580 N   0  0  0  0  0  0  0  0  0  0  0  0
  -24.4154   -8.5119   16.0221 C   0  0  0  0  0  0  0  0  0  0  0  0
  -24.9416   -9.0092   18.0451 H   0  0  0  0  0  0  0  0  0  0  0  0
  -17.7500   -8.0208   20.9745 C   0  0  0  0  0  0  0  0  0  0  0  0
  -17.7752   -7.2723   22.2950 C   0  0  0  0  0  0  0  0  0  0  0  0
  -18.4377   -6.0978   22.1906 F   0  0  0  0  0  0  0  0  0  0  0  0
  -18.3506   -7.9946   23.2796 F   0  0  0  0  0  0  0  0  0  0  0  0
  -16.5124   -6.9847   22.6915 F   0  0  0  0  0  0  0  0  0  0  0  0
 12 13  3  0
 13  2  1  0
  2  3  1  0
  3 14  1  0
 14 15  1  0
 15 17  1  0
 17 18  1  0
 18 19  1  0
 19 20  1  0
 20 23  1  0
 23 24  2  0
 23 25  1  0
 23 26  2  0
 20 21  1  0
 21 22  1  0
 17 22  1  0
 15 16  1  0
  2  4  2  0
  4  5  1  0
  5  6  2  0
  3  6  1  0
  6  7  1  0
  7  8  2  0
  8  9  1  0
  9  1  1  0
  1 27  1  0
 27 28  1  0
 28 29  1  0
 29 30  1  0
 30 33  1  0
 33 35  1  0
 35 36  2  0
 36 37  1  0
 37 38  2  0
 38 47  1  0
 47 48  1  0
 48 49  1  0
 48 50  1  0
 48 51  1  0
 38 39  1  0
 36 40  1  0
 39 40  1  0
 40 41  2  0
 41 42  1  0
 42 44  1  0
 44 45  1  0
 42 43  2  0
 35 43  1  0
 30 31  1  0
 31 32  1  0
 27 32  1  0
  9 10  2  0
  5 10  1  0
 10 11  1  0
 33 34  1  0
 44 46  1  0
M  END
> <minimizedAffinity>
-8.73448

> <CNNscore>
0.2041009814

> <CNNaffinity>
7.1307501793

> <CNN_VS>
1.4553930759

> <CNNaffinity_variance>
1.2225347757

$$$$
ziftomenib.sdf


 51 56  0  0  0  0  0  0  0  0999 V2000
  -23.8117   -0.2097   21.3022 C   0  0  0  0  0  0  0  0  0  0  0  0
  -28.9102    2.8269   22.8098 C   0  0  0  0  0  0  0  0  0  0  0  0
  -28.6004    1.7725   23.6378 N   0  0  0  0  0  0  0  0  0  0  0  0
  -27.9173    2.9144   21.8603 C   0  0  0  0  0  0  0  0  0  0  0  0
  -26.9717    1.8731   22.0975 C   0  0  0  0  0  0  0  0  0  0  0  0
  -27.4235    1.1727   23.2214 C   0  0  0  0  0  0  0  0  0  0  0  0
  -26.7240    0.0769   23.7400 C   0  0  0  0  0  0  0  0  0  0  0  0
  -25.5550   -0.3170   23.0909 C   0  0  0  0  0  0  0  0  0  0  0  0
  -25.0718    0.3485   21.9525 C   0  0  0  0  0  0  0  0  0  0  0  0
  -25.7762    1.4702   21.4368 C   0  0  0  0  0  0  0  0  0  0  0  0
  -25.2704    2.1985   20.2191 C   0  0  0  0  0  0  0  0  0  0  0  0
  -30.9582    4.3862   23.0080 N   0  0  0  0  0  0  0  0  0  0  0  0
  -30.0610    3.6566   22.9300 C   0  0  0  0  0  0  0  0  0  0  0  0
  -29.4430    1.3059   24.7372 C   0  0  0  0  0  0  0  0  0  0  0  0
  -28.9795    1.7744   26.1478 C   0  0  0  0  0  0  0  0  0  0  0  0
  -27.6774    2.5875   26.0004 C   0  0  0  0  0  0  0  0  0  0  0  0
  -28.7474    0.6643   27.1096 N   0  0  0  0  0  0  0  0  0  0  0  0
  -27.3997    0.7082   27.7366 C   0  0  0  0  0  0  0  0  0  0  0  0
  -27.3757    1.1049   29.2284 C   0  0  0  0  0  0  0  0  0  0  0  0
  -28.2155    0.1862   30.0375 N   0  0  0  0  0  0  0  0  0  0  0  0
  -29.3804   -0.3872   29.3195 C   0  0  0  0  0  0  0  0  0  0  0  0
  -29.7974    0.5064   28.1354 C   0  0  0  0  0  0  0  0  0  0  0  0
  -28.3573    0.5010   31.6850 S   0  0  0  0  0  0  0  0  0  0  0  0
  -29.6837    1.0275   31.9251 O   0  0  0  0  0  0  0  0  0  0  0  0
  -28.2790   -1.1290   32.4060 C   0  0  0  0  0  0  0  0  0  0  0  0
  -27.1741    1.2237   32.1004 O   0  0  0  0  0  0  0  0  0  0  0  0
  -23.9024   -0.2742   19.8339 N   0  0  0  0  0  0  0  0  0  0  0  0
  -24.2970   -1.5962   19.3303 C   0  0  0  0  0  0  0  0  0  0  0  0
  -23.1906   -2.6487   19.4116 C   0  0  0  0  0  0  0  0  0  0  0  0
  -21.9041   -2.1616   18.7357 C   0  0  0  0  0  0  0  0  0  0  0  0
  -21.5101   -0.7861   19.2827 C   0  0  0  0  0  0  0  0  0  0  0  0
  -22.6762    0.1926   19.1770 C   0  0  0  0  0  0  0  0  0  0  0  0
  -20.8479   -3.1437   18.9983 N   0  0  0  0  0  0  0  0  0  0  0  0
  -20.0234   -2.8937   19.4748 H   0  0  0  0  0  0  0  0  0  0  0  0
  -21.0578   -4.4471   18.5460 C   0  0  0  0  0  0  0  0  0  0  0  0
  -20.6615   -5.5668   19.2992 C   0  0  0  0  0  0  0  0  0  0  0  0
  -20.0196   -5.7246   20.5759 C   0  0  0  0  0  0  0  0  0  0  0  0
  -19.8221   -7.0473   20.9209 C   0  0  0  0  0  0  0  0  0  0  0  0
  -20.4143   -8.1005   19.7064 S   0  0  0  0  0  0  0  0  0  0  0  0
  -20.9250   -6.7990   18.7310 C   0  0  0  0  0  0  0  0  0  0  0  0
  -21.5147   -7.0251   17.5497 N   0  0  0  0  0  0  0  0  0  0  0  0
  -21.8663   -5.9108   16.9114 C   0  0  0  0  0  0  0  0  0  0  0  0
  -21.6656   -4.6623   17.3587 N   0  0  0  0  0  0  0  0  0  0  0  0
  -22.4862   -6.1080   15.6813 N   0  0  0  0  0  0  0  0  0  0  0  0
  -23.6725   -6.9323   15.7515 C   0  0  0  0  0  0  0  0  0  0  0  0
  -22.1484   -5.7222   14.8409 H   0  0  0  0  0  0  0  0  0  0  0  0
  -19.1830   -7.6039   22.1625 C   0  0  0  0  0  0  0  0  0  0  0  0
  -17.7155   -7.9455   21.9764 C   0  0  0  0  0  0  0  0  0  0  0  0
  -16.9145   -7.0931   22.6555 F   0  0  0  0  0  0  0  0  0  0  0  0
  -17.4297   -9.2023   22.3776 F   0  0  0  0  0  0  0  0  0  0  0  0
  -17.3782   -7.8536   20.6678 F   0  0  0  0  0  0  0  0  0  0  0  0
 12 13  3  0
 13  2  1  0
  2  3  1  0
  3 14  1  0
 14 15  1  0
 15 17  1  0
 17 18  1  0
 18 19  1  0
 19 20  1  0
 20 23  1  0
 23 24  2  0
 23 25  1  0
 23 26  2  0
 20 21  1  0
 21 22  1  0
 17 22  1  0
 15 16  1  0
  2  4  2  0
  4  5  1  0
  5  6  2  0
  3  6  1  0
  6  7  1  0
  7  8  2  0
  8  9  1  0
  9  1  1  0
  1 27  1  0
 27 28  1  0
 28 29  1  0
 29 30  1  0
 30 33  1  0
 33 35  1  0
 35 36  2  0
 36 37  1  0
 37 38  2  0
 38 47  1  0
 47 48  1  0
 48 49  1  0
 48 50  1  0
 48 51  1  0
 38 39  1  0
 36 40  1  0
 39 40  1  0
 40 41  2  0
 41 42  1  0
 42 44  1  0
 44 45  1  0
 42 43  2  0
 35 43  1  0
 30 31  1  0
 31 32  1  0
 27 32  1  0
  9 10  2  0
  5 10  1  0
 10 11  1  0
 33 34  1  0
 44 46  1  0
M  END
> <minimizedAffinity>
-8.48293

> <CNNscore>
0.1983226389

> <CNNaffinity>
6.0594859123

> <CNN_VS>
1.2017332315

> <CNNaffinity_variance>
1.6682497263

$$$$
ziftomenib.sdf


 51 56  0  0  0  0  0  0  0  0999 V2000
  -28.8177    1.4342   23.4744 C   0  0  0  0  0  0  0  0  0  0  0  0
  -24.6971    0.4394   19.0563 C   0  0  0  0  0  0  0  0  0  0  0  0
  -25.4775   -0.6487   19.3731 N   0  0  0  0  0  0  0  0  0  0  0  0
  -25.1147    1.4916   19.8397 C   0  0  0  0  0  0  0  0  0  0  0  0
  -26.1756    1.0379   20.6783 C   0  0  0  0  0  0  0  0  0  0  0  0
  -26.3851   -0.3091   20.3627 C   0  0  0  0  0  0  0  0  0  0  0  0
  -27.3678   -1.0738   21.0018 C   0  0  0  0  0  0  0  0  0  0  0  0
  -28.1358   -0.4565   21.9877 C   0  0  0  0  0  0  0  0  0  0  0  0
  -27.9512    0.8889   22.3457 C   0  0  0  0  0  0  0  0  0  0  0  0
  -26.9626    1.6673   21.6846 C   0  0  0  0  0  0  0  0  0  0  0  0
  -26.7534    3.1129   22.0528 C   0  0  0  0  0  0  0  0  0  0  0  0
  -22.7476    0.4560   17.3640 N   0  0  0  0  0  0  0  0  0  0  0  0
  -23.6476    0.4468   18.0943 C   0  0  0  0  0  0  0  0  0  0  0  0
  -25.3058   -1.9854   18.8075 C   0  0  0  0  0  0  0  0  0  0  0  0
  -25.8072   -2.1338   17.3410 C   0  0  0  0  0  0  0  0  0  0  0  0
  -27.0844   -1.2880   17.1626 C   0  0  0  0  0  0  0  0  0  0  0  0
  -26.0980   -3.5354   16.9384 N   0  0  0  0  0  0  0  0  0  0  0  0
  -26.6015   -4.3718   18.0601 C   0  0  0  0  0  0  0  0  0  0  0  0
  -28.0955   -4.7532   17.9834 C   0  0  0  0  0  0  0  0  0  0  0  0
  -28.3979   -5.4712   16.7198 N   0  0  0  0  0  0  0  0  0  0  0  0
  -27.5495   -5.0842   15.5656 C   0  0  0  0  0  0  0  0  0  0  0  0
  -26.9686   -3.6694   15.7534 C   0  0  0  0  0  0  0  0  0  0  0  0
  -29.9962   -5.9151   16.4341 S   0  0  0  0  0  0  0  0  0  0  0  0
  -30.0623   -7.3607   16.4265 O   0  0  0  0  0  0  0  0  0  0  0  0
  -30.8335   -5.3387   17.9002 C   0  0  0  0  0  0  0  0  0  0  0  0
  -30.4788   -5.1338   15.3153 O   0  0  0  0  0  0  0  0  0  0  0  0
  -28.5616    0.7750   24.7660 N   0  0  0  0  0  0  0  0  0  0  0  0
  -28.5604    1.7020   25.9052 C   0  0  0  0  0  0  0  0  0  0  0  0
  -27.3130    2.5826   25.9896 C   0  0  0  0  0  0  0  0  0  0  0  0
  -26.0316    1.7420   25.9603 C   0  0  0  0  0  0  0  0  0  0  0  0
  -26.0538    0.7899   24.7605 C   0  0  0  0  0  0  0  0  0  0  0  0
  -27.3379   -0.0346   24.7476 C   0  0  0  0  0  0  0  0  0  0  0  0
  -24.8870    2.6538   25.8748 N   0  0  0  0  0  0  0  0  0  0  0  0
  -24.6638    3.1181   25.0358 H   0  0  0  0  0  0  0  0  0  0  0  0
  -24.1262    2.8375   27.0303 C   0  0  0  0  0  0  0  0  0  0  0  0
  -22.7433    3.0880   26.9762 C   0  0  0  0  0  0  0  0  0  0  0  0
  -21.8028    3.2227   25.8972 C   0  0  0  0  0  0  0  0  0  0  0  0
  -20.5153    3.4706   26.3313 C   0  0  0  0  0  0  0  0  0  0  0  0
  -20.4404    3.5448   28.0412 S   0  0  0  0  0  0  0  0  0  0  0  0
  -22.1114    3.2452   28.1955 C   0  0  0  0  0  0  0  0  0  0  0  0
  -22.6824    3.1843   29.4057 N   0  0  0  0  0  0  0  0  0  0  0  0
  -23.9933    2.9553   29.3619 C   0  0  0  0  0  0  0  0  0  0  0  0
  -24.7161    2.7868   28.2447 N   0  0  0  0  0  0  0  0  0  0  0  0
  -24.6209    2.8899   30.6021 N   0  0  0  0  0  0  0  0  0  0  0  0
  -24.1560    3.8841   31.5442 C   0  0  0  0  0  0  0  0  0  0  0  0
  -25.3169    2.2281   30.8184 H   0  0  0  0  0  0  0  0  0  0  0  0
  -19.2721    3.6621   25.5081 C   0  0  0  0  0  0  0  0  0  0  0  0
  -19.2685    2.8390   24.2325 C   0  0  0  0  0  0  0  0  0  0  0  0
  -18.0107    2.5455   23.8312 F   0  0  0  0  0  0  0  0  0  0  0  0
  -19.9476    1.6805   24.3713 F   0  0  0  0  0  0  0  0  0  0  0  0
  -19.8564    3.5328   23.2287 F   0  0  0  0  0  0  0  0  0  0  0  0
 12 13  3  0
 13  2  1  0
  2  3  1  0
  3 14  1  0
 14 15  1  0
 15 17  1  0
 17 18  1  0
 18 19  1  0
 19 20  1  0
 20 23  1  0
 23 24  2  0
 23 25  1  0
 23 26  2  0
 20 21  1  0
 21 22  1  0
 17 22  1  0
 15 16  1  0
  2  4  2  0
  4  5  1  0
  5  6  2  0
  3  6  1  0
  6  7  1  0
  7  8  2  0
  8  9  1  0
  9  1  1  0
  1 27  1  0
 27 28  1  0
 28 29  1  0
 29 30  1  0
 30 33  1  0
 33 35  1  0
 35 36  2  0
 36 37  1  0
 37 38  2  0
 38 47  1  0
 47 48  1  0
 48 49  1  0
 48 50  1  0
 48 51  1  0
 38 39  1  0
 36 40  1  0
 39 40  1  0
 40 41  2  0
 41 42  1  0
 42 44  1  0
 44 45  1  0
 42 43  2  0
 35 43  1  0
 30 31  1  0
 31 32  1  0
 27 32  1  0
  9 10  2  0
  5 10  1  0
 10 11  1  0
 33 34  1  0
 44 46  1  0
M  END
> <minimizedAffinity>
-8.59469

> <CNNscore>
0.1545450836

> <CNNaffinity>
6.5300469398

> <CNN_VS>
1.0091866255

> <CNNaffinity_variance>
1.2616597414

$$$$
ziftomenib.sdf


 51 56  0  0  0  0  0  0  0  0999 V2000
  -22.2483    0.0350   19.3608 C   0  0  0  0  0  0  0  0  0  0  0  0
  -20.1238    2.9183   24.3268 C   0  0  0  0  0  0  0  0  0  0  0  0
  -21.4912    2.7700   24.2864 N   0  0  0  0  0  0  0  0  0  0  0  0
  -19.6078    2.3164   23.2014 C   0  0  0  0  0  0  0  0  0  0  0  0
  -20.6892    1.7928   22.4324 C   0  0  0  0  0  0  0  0  0  0  0  0
  -21.8604    2.0891   23.1383 C   0  0  0  0  0  0  0  0  0  0  0  0
  -23.1231    1.7120   22.6666 C   0  0  0  0  0  0  0  0  0  0  0  0
  -23.1895    1.0366   21.4491 C   0  0  0  0  0  0  0  0  0  0  0  0
  -22.0411    0.7300   20.7009 C   0  0  0  0  0  0  0  0  0  0  0  0
  -20.7589    1.1010   21.1897 C   0  0  0  0  0  0  0  0  0  0  0  0
  -19.5161    0.7768   20.4026 C   0  0  0  0  0  0  0  0  0  0  0  0
  -18.8056    4.1857   26.1491 N   0  0  0  0  0  0  0  0  0  0  0  0
  -19.3988    3.5860   25.3543 C   0  0  0  0  0  0  0  0  0  0  0  0
  -22.4157    3.3311   25.2697 C   0  0  0  0  0  0  0  0  0  0  0  0
  -22.5320    2.5095   26.5871 C   0  0  0  0  0  0  0  0  0  0  0  0
  -22.9030    1.0542   26.2361 C   0  0  0  0  0  0  0  0  0  0  0  0
  -23.5333    3.0431   27.5482 N   0  0  0  0  0  0  0  0  0  0  0  0
  -24.9226    2.6089   27.2440 C   0  0  0  0  0  0  0  0  0  0  0  0
  -25.5259    1.5818   28.2262 C   0  0  0  0  0  0  0  0  0  0  0  0
  -25.5147    2.1035   29.6160 N   0  0  0  0  0  0  0  0  0  0  0  0
  -24.4004    3.0340   29.9227 C   0  0  0  0  0  0  0  0  0  0  0  0
  -23.2106    2.8084   28.9698 C   0  0  0  0  0  0  0  0  0  0  0  0
  -26.0820    1.0929   30.8367 S   0  0  0  0  0  0  0  0  0  0  0  0
  -25.7797    1.7162   32.1072 O   0  0  0  0  0  0  0  0  0  0  0  0
  -27.8502    1.1519   30.6074 C   0  0  0  0  0  0  0  0  0  0  0  0
  -25.6435   -0.2532   30.5355 O   0  0  0  0  0  0  0  0  0  0  0  0
  -23.3570   -0.9339   19.3807 N   0  0  0  0  0  0  0  0  0  0  0  0
  -23.1017   -2.0964   20.2413 C   0  0  0  0  0  0  0  0  0  0  0  0
  -22.1022   -3.0954   19.6573 C   0  0  0  0  0  0  0  0  0  0  0  0
  -22.5076   -3.5321   18.2451 C   0  0  0  0  0  0  0  0  0  0  0  0
  -22.7607   -2.3033   17.3663 C   0  0  0  0  0  0  0  0  0  0  0  0
  -23.7546   -1.3565   18.0330 C   0  0  0  0  0  0  0  0  0  0  0  0
  -21.4255   -4.3503   17.6896 N   0  0  0  0  0  0  0  0  0  0  0  0
  -20.6602   -3.9402   17.2255 H   0  0  0  0  0  0  0  0  0  0  0  0
  -21.5234   -5.7337   17.8451 C   0  0  0  0  0  0  0  0  0  0  0  0
  -20.9108   -6.4049   18.9186 C   0  0  0  0  0  0  0  0  0  0  0  0
  -20.1154   -5.9697   20.0343 C   0  0  0  0  0  0  0  0  0  0  0  0
  -19.7199   -7.0091   20.8533 C   0  0  0  0  0  0  0  0  0  0  0  0
  -20.3109   -8.5110   20.2791 S   0  0  0  0  0  0  0  0  0  0  0  0
  -21.0834   -7.7761   18.9490 C   0  0  0  0  0  0  0  0  0  0  0  0
  -21.7696   -8.5152   18.0676 N   0  0  0  0  0  0  0  0  0  0  0  0
  -22.3244   -7.7977   17.0929 C   0  0  0  0  0  0  0  0  0  0  0  0
  -22.2294   -6.4668   16.9566 N   0  0  0  0  0  0  0  0  0  0  0  0
  -23.0494   -8.5333   16.1603 N   0  0  0  0  0  0  0  0  0  0  0  0
  -22.8882   -8.0705   14.7996 C   0  0  0  0  0  0  0  0  0  0  0  0
  -23.6193   -9.2981   16.4042 H   0  0  0  0  0  0  0  0  0  0  0  0
  -18.8822   -6.9497   22.1001 C   0  0  0  0  0  0  0  0  0  0  0  0
  -17.5902   -7.7390   21.9891 C   0  0  0  0  0  0  0  0  0  0  0  0
  -17.2323   -7.9320   20.6992 F   0  0  0  0  0  0  0  0  0  0  0  0
  -16.5655   -7.1318   22.6244 F   0  0  0  0  0  0  0  0  0  0  0  0
  -17.7426   -8.9630   22.5486 F   0  0  0  0  0  0  0  0  0  0  0  0
 12 13  3  0
 13  2  1  0
  2  3  1  0
  3 14  1  0
 14 15  1  0
 15 17  1  0
 17 18  1  0
 18 19  1  0
 19 20  1  0
 20 23  1  0
 23 24  2  0
 23 25  1  0
 23 26  2  0
 20 21  1  0
 21 22  1  0
 17 22  1  0
 15 16  1  0
  2  4  2  0
  4  5  1  0
  5  6  2  0
  3  6  1  0
  6  7  1  0
  7  8  2  0
  8  9  1  0
  9  1  1  0
  1 27  1  0
 27 28  1  0
 28 29  1  0
 29 30  1  0
 30 33  1  0
 33 35  1  0
 35 36  2  0
 36 37  1  0
 37 38  2  0
 38 47  1  0
 47 48  1  0
 48 49  1  0
 48 50  1  0
 48 51  1  0
 38 39  1  0
 36 40  1  0
 39 40  1  0
 40 41  2  0
 41 42  1  0
 42 44  1  0
 44 45  1  0
 42 43  2  0
 35 43  1  0
 30 31  1  0
 31 32  1  0
 27 32  1  0
  9 10  2  0
  5 10  1  0
 10 11  1  0
 33 34  1  0
 44 46  1  0
M  END
> <minimizedAffinity>
-8.58276

> <CNNscore>
0.1412510127

> <CNNaffinity>
6.8483672142

> <CNN_VS>
0.9673388004

> <CNNaffinity_variance>
0.7219529152

$$$$
ziftomenib.sdf


 51 56  0  0  0  0  0  0  0  0999 V2000
  -23.2901   -0.8657   18.3665 C   0  0  0  0  0  0  0  0  0  0  0  0
  -21.1764    1.2798   23.6974 C   0  0  0  0  0  0  0  0  0  0  0  0
  -22.5336    1.4178   23.5171 N   0  0  0  0  0  0  0  0  0  0  0  0
  -20.6736    0.6388   22.5876 C   0  0  0  0  0  0  0  0  0  0  0  0
  -21.7492    0.3859   21.6854 C   0  0  0  0  0  0  0  0  0  0  0  0
  -22.9063    0.8828   22.2952 C   0  0  0  0  0  0  0  0  0  0  0  0
  -24.1610    0.7962   21.6809 C   0  0  0  0  0  0  0  0  0  0  0  0
  -24.2302    0.2075   20.4194 C   0  0  0  0  0  0  0  0  0  0  0  0
  -23.0929   -0.2927   19.7647 C   0  0  0  0  0  0  0  0  0  0  0  0
  -21.8223   -0.2170   20.3973 C   0  0  0  0  0  0  0  0  0  0  0  0
  -20.5923   -0.7519   19.7116 C   0  0  0  0  0  0  0  0  0  0  0  0
  -19.9015    2.0748   25.7967 N   0  0  0  0  0  0  0  0  0  0  0  0
  -20.4469    1.7345   24.8323 C   0  0  0  0  0  0  0  0  0  0  0  0
  -23.4272    2.1096   24.4440 C   0  0  0  0  0  0  0  0  0  0  0  0
  -24.1174    3.3732   23.8515 C   0  0  0  0  0  0  0  0  0  0  0  0
  -23.3041    4.6204   24.2535 C   0  0  0  0  0  0  0  0  0  0  0  0
  -25.5267    3.5560   24.2892 N   0  0  0  0  0  0  0  0  0  0  0  0
  -26.3135    4.4250   23.3743 C   0  0  0  0  0  0  0  0  0  0  0  0
  -27.3805    3.6998   22.5263 C   0  0  0  0  0  0  0  0  0  0  0  0
  -28.3438    2.9725   23.3905 N   0  0  0  0  0  0  0  0  0  0  0  0
  -27.7804    2.4764   24.6703 C   0  0  0  0  0  0  0  0  0  0  0  0
  -26.2525    2.3021   24.5736 C   0  0  0  0  0  0  0  0  0  0  0  0
  -29.5483    2.0713   22.6352 S   0  0  0  0  0  0  0  0  0  0  0  0
  -28.9307    0.8950   22.0615 O   0  0  0  0  0  0  0  0  0  0  0  0
  -30.5620    1.5421   24.0046 C   0  0  0  0  0  0  0  0  0  0  0  0
  -30.3372    2.9770   21.8275 O   0  0  0  0  0  0  0  0  0  0  0  0
  -24.1965   -2.0260   18.3431 N   0  0  0  0  0  0  0  0  0  0  0  0
  -23.8218   -3.0796   19.2953 C   0  0  0  0  0  0  0  0  0  0  0  0
  -22.5995   -3.8950   18.8719 C   0  0  0  0  0  0  0  0  0  0  0  0
  -22.7679   -4.4627   17.4581 C   0  0  0  0  0  0  0  0  0  0  0  0
  -23.1508   -3.3445   16.4838 C   0  0  0  0  0  0  0  0  0  0  0  0
  -24.3666   -2.5756   16.9933 C   0  0  0  0  0  0  0  0  0  0  0  0
  -21.5012   -5.0838   17.0595 N   0  0  0  0  0  0  0  0  0  0  0  0
  -20.6938   -4.5434   16.9006 H   0  0  0  0  0  0  0  0  0  0  0  0
  -21.4857   -6.4716   16.9140 C   0  0  0  0  0  0  0  0  0  0  0  0
  -20.9960   -7.3182   17.9249 C   0  0  0  0  0  0  0  0  0  0  0  0
  -20.4437   -7.0839   19.2314 C   0  0  0  0  0  0  0  0  0  0  0  0
  -20.0881   -8.2482   19.8837 C   0  0  0  0  0  0  0  0  0  0  0  0
  -20.4237   -9.6257   18.9221 S   0  0  0  0  0  0  0  0  0  0  0  0
  -21.0342   -8.6719   17.6478 C   0  0  0  0  0  0  0  0  0  0  0  0
  -21.4880   -9.2459   16.5259 N   0  0  0  0  0  0  0  0  0  0  0  0
  -21.9421   -8.3719   15.6300 C   0  0  0  0  0  0  0  0  0  0  0  0
  -21.9585   -7.0394   15.7829 N   0  0  0  0  0  0  0  0  0  0  0  0
  -22.4258   -8.9338   14.4525 N   0  0  0  0  0  0  0  0  0  0  0  0
  -22.7043   -7.9650   13.4153 C   0  0  0  0  0  0  0  0  0  0  0  0
  -22.5656   -9.9014   14.3362 H   0  0  0  0  0  0  0  0  0  0  0  0
  -19.4787   -8.4058   21.2489 C   0  0  0  0  0  0  0  0  0  0  0  0
  -18.0577   -7.8782   21.3325 C   0  0  0  0  0  0  0  0  0  0  0  0
  -18.0320   -6.5335   21.4749 F   0  0  0  0  0  0  0  0  0  0  0  0
  -17.3709   -8.4238   22.3586 F   0  0  0  0  0  0  0  0  0  0  0  0
  -17.3839   -8.1723   20.1949 F   0  0  0  0  0  0  0  0  0  0  0  0
 12 13  3  0
 13  2  1  0
  2  3  1  0
  3 14  1  0
 14 15  1  0
 15 17  1  0
 17 18  1  0
 18 19  1  0
 19 20  1  0
 20 23  1  0
 23 24  2  0
 23 25  1  0
 23 26  2  0
 20 21  1  0
 21 22  1  0
 17 22  1  0
 15 16  1  0
  2  4  2  0
  4  5  1  0
  5  6  2  0
  3  6  1  0
  6  7  1  0
  7  8  2  0
  8  9  1  0
  9  1  1  0
  1 27  1  0
 27 28  1  0
 28 29  1  0
 29 30  1  0
 30 33  1  0
 33 35  1  0
 35 36  2  0
 36 37  1  0
 37 38  2  0
 38 47  1  0
 47 48  1  0
 48 49  1  0
 48 50  1  0
 48 51  1  0
 38 39  1  0
 36 40  1  0
 39 40  1  0
 40 41  2  0
 41 42  1  0
 42 44  1  0
 44 45  1  0
 42 43  2  0
 35 43  1  0
 30 31  1  0
 31 32  1  0
 27 32  1  0
  9 10  2  0
  5 10  1  0
 10 11  1  0
 33 34  1  0
 44 46  1  0
M  END
> <minimizedAffinity>
-8.35151

> <CNNscore>
0.1261247993

> <CNNaffinity>
6.3020319939

> <CNN_VS>
0.7948425412

> <CNNaffinity_variance>
1.5711234808

$$$$
ziftomenib.sdf


 51 56  0  0  0  0  0  0  0  0999 V2000
  -22.2620    1.2266   25.9426 C   0  0  0  0  0  0  0  0  0  0  0  0
  -21.2419   -2.5539   21.2355 C   0  0  0  0  0  0  0  0  0  0  0  0
  -21.5566   -3.1792   22.4201 N   0  0  0  0  0  0  0  0  0  0  0  0
  -21.2838   -1.1962   21.4592 C   0  0  0  0  0  0  0  0  0  0  0  0
  -21.6195   -0.9734   22.8275 C   0  0  0  0  0  0  0  0  0  0  0  0
  -21.7881   -2.2357   23.4073 C   0  0  0  0  0  0  0  0  0  0  0  0
  -22.1303   -2.3900   24.7556 C   0  0  0  0  0  0  0  0  0  0  0  0
  -22.2869   -1.2381   25.5247 C   0  0  0  0  0  0  0  0  0  0  0  0
  -22.1147    0.0481   24.9877 C   0  0  0  0  0  0  0  0  0  0  0  0
  -21.7818    0.2023   23.6145 C   0  0  0  0  0  0  0  0  0  0  0  0
  -21.5970    1.5743   23.0207 C   0  0  0  0  0  0  0  0  0  0  0  0
  -20.7176   -3.7159   18.9906 N   0  0  0  0  0  0  0  0  0  0  0  0
  -20.9253   -3.2152   20.0151 C   0  0  0  0  0  0  0  0  0  0  0  0
  -21.5554   -4.6271   22.6196 C   0  0  0  0  0  0  0  0  0  0  0  0
  -20.3431   -5.1641   23.4356 C   0  0  0  0  0  0  0  0  0  0  0  0
  -19.1740   -4.1664   23.3069 C   0  0  0  0  0  0  0  0  0  0  0  0
  -19.8755   -6.5106   23.0121 N   0  0  0  0  0  0  0  0  0  0  0  0
  -20.9767   -7.3845   22.5273 C   0  0  0  0  0  0  0  0  0  0  0  0
  -20.9889   -7.6532   21.0071 C   0  0  0  0  0  0  0  0  0  0  0  0
  -19.7087   -8.2594   20.5629 N   0  0  0  0  0  0  0  0  0  0  0  0
  -18.5207   -7.8549   21.3545 C   0  0  0  0  0  0  0  0  0  0  0  0
  -18.7535   -6.5010   22.0524 C   0  0  0  0  0  0  0  0  0  0  0  0
  -19.5169   -8.5686   18.9195 S   0  0  0  0  0  0  0  0  0  0  0  0
  -20.0285   -9.8958   18.6534 O   0  0  0  0  0  0  0  0  0  0  0  0
  -20.6282   -7.3944   18.1651 C   0  0  0  0  0  0  0  0  0  0  0  0
  -18.1670   -8.1950   18.5540 O   0  0  0  0  0  0  0  0  0  0  0  0
  -21.8753    0.8985   27.3250 N   0  0  0  0  0  0  0  0  0  0  0  0
  -22.8863    0.1121   28.0437 C   0  0  0  0  0  0  0  0  0  0  0  0
  -24.1147    0.9176   28.4685 C   0  0  0  0  0  0  0  0  0  0  0  0
  -23.7176    2.1658   29.2645 C   0  0  0  0  0  0  0  0  0  0  0  0
  -22.6692    2.9717   28.4914 C   0  0  0  0  0  0  0  0  0  0  0  0
  -21.4907    2.0869   28.0950 C   0  0  0  0  0  0  0  0  0  0  0  0
  -24.9232    2.9688   29.4898 N   0  0  0  0  0  0  0  0  0  0  0  0
  -24.9508    3.6675   30.1828 H   0  0  0  0  0  0  0  0  0  0  0  0
  -26.0303    2.7031   28.6827 C   0  0  0  0  0  0  0  0  0  0  0  0
  -27.1671    2.0391   29.1775 C   0  0  0  0  0  0  0  0  0  0  0  0
  -27.5193    1.5036   30.4644 C   0  0  0  0  0  0  0  0  0  0  0  0
  -28.7723    0.9229   30.4829 C   0  0  0  0  0  0  0  0  0  0  0  0
  -29.5269    1.0265   28.9484 S   0  0  0  0  0  0  0  0  0  0  0  0
  -28.1891    1.8360   28.2693 C   0  0  0  0  0  0  0  0  0  0  0  0
  -28.2007    2.2074   26.9824 N   0  0  0  0  0  0  0  0  0  0  0  0
  -27.0912    2.8383   26.6032 C   0  0  0  0  0  0  0  0  0  0  0  0
  -26.0352    3.0945   27.3895 N   0  0  0  0  0  0  0  0  0  0  0  0
  -27.0701    3.2428   25.2720 N   0  0  0  0  0  0  0  0  0  0  0  0
  -27.8188    2.3773   24.3875 C   0  0  0  0  0  0  0  0  0  0  0  0
  -26.5900    4.0441   24.9609 H   0  0  0  0  0  0  0  0  0  0  0  0
  -29.4773    0.2579   31.6321 C   0  0  0  0  0  0  0  0  0  0  0  0
  -30.8915    0.7688   31.8406 C   0  0  0  0  0  0  0  0  0  0  0  0
  -31.3304    0.5250   33.0965 F   0  0  0  0  0  0  0  0  0  0  0  0
  -30.9941    2.0947   31.6083 F   0  0  0  0  0  0  0  0  0  0  0  0
  -31.7424    0.1441   30.9919 F   0  0  0  0  0  0  0  0  0  0  0  0
 12 13  3  0
 13  2  1  0
  2  3  1  0
  3 14  1  0
 14 15  1  0
 15 17  1  0
 17 18  1  0
 18 19  1  0
 19 20  1  0
 20 23  1  0
 23 24  2  0
 23 25  1  0
 23 26  2  0
 20 21  1  0
 21 22  1  0
 17 22  1  0
 15 16  1  0
  2  4  2  0
  4  5  1  0
  5  6  2  0
  3  6  1  0
  6  7  1  0
  7  8  2  0
  8  9  1  0
  9  1  1  0
  1 27  1  0
 27 28  1  0
 28 29  1  0
 29 30  1  0
 30 33  1  0
 33 35  1  0
 35 36  2  0
 36 37  1  0
 37 38  2  0
 38 47  1  0
 47 48  1  0
 48 49  1  0
 48 50  1  0
 48 51  1  0
 38 39  1  0
 36 40  1  0
 39 40  1  0
 40 41  2  0
 41 42  1  0
 42 44  1  0
 44 45  1  0
 42 43  2  0
 35 43  1  0
 30 31  1  0
 31 32  1  0
 27 32  1  0
  9 10  2  0
  5 10  1  0
 10 11  1  0
 33 34  1  0
 44 46  1  0
M  END
> <minimizedAffinity>
-8.42239

> <CNNscore>
0.1234643832

> <CNNaffinity>
6.6911792755

> <CNN_VS>
0.8261223435

> <CNNaffinity_variance>
1.0872448683

$$$$
ziftomenib.sdf


 51 56  0  0  0  0  0  0  0  0999 V2000
  -20.1711    1.6323   24.7847 C   0  0  0  0  0  0  0  0  0  0  0  0
  -23.1962    3.5020   29.7689 C   0  0  0  0  0  0  0  0  0  0  0  0
  -23.8356    2.5276   29.0374 N   0  0  0  0  0  0  0  0  0  0  0  0
  -21.9913    3.7584   29.1543 C   0  0  0  0  0  0  0  0  0  0  0  0
  -21.8876    2.9290   27.9984 C   0  0  0  0  0  0  0  0  0  0  0  0
  -23.0582    2.1641   27.9503 C   0  0  0  0  0  0  0  0  0  0  0  0
  -23.2891    1.2292   26.9345 C   0  0  0  0  0  0  0  0  0  0  0  0
  -22.3164    1.0864   25.9463 C   0  0  0  0  0  0  0  0  0  0  0  0
  -21.1328    1.8424   25.9479 C   0  0  0  0  0  0  0  0  0  0  0  0
  -20.8942    2.7803   26.9890 C   0  0  0  0  0  0  0  0  0  0  0  0
  -19.6285    3.5969   27.0088 C   0  0  0  0  0  0  0  0  0  0  0  0
  -24.1886    4.6501   31.8573 N   0  0  0  0  0  0  0  0  0  0  0  0
  -23.7132    4.1229   30.9411 C   0  0  0  0  0  0  0  0  0  0  0  0
  -25.1771    2.0223   29.3229 C   0  0  0  0  0  0  0  0  0  0  0  0
  -25.2362    0.5017   29.6525 C   0  0  0  0  0  0  0  0  0  0  0  0
  -26.0659   -0.2121   28.5659 C   0  0  0  0  0  0  0  0  0  0  0  0
  -25.8199    0.1922   30.9846 N   0  0  0  0  0  0  0  0  0  0  0  0
  -26.6331    1.3072   31.5383 C   0  0  0  0  0  0  0  0  0  0  0  0
  -28.1577    1.0657   31.5649 C   0  0  0  0  0  0  0  0  0  0  0  0
  -28.4900   -0.1570   32.3385 N   0  0  0  0  0  0  0  0  0  0  0  0
  -27.4525   -1.2171   32.3032 C   0  0  0  0  0  0  0  0  0  0  0  0
  -26.5631   -1.0818   31.0522 C   0  0  0  0  0  0  0  0  0  0  0  0
  -30.1079   -0.6131   32.4260 S   0  0  0  0  0  0  0  0  0  0  0  0
  -30.8526    0.4931   32.9881 O   0  0  0  0  0  0  0  0  0  0  0  0
  -30.5684   -0.7640   30.7090 C   0  0  0  0  0  0  0  0  0  0  0  0
  -30.1635   -1.9342   33.0147 O   0  0  0  0  0  0  0  0  0  0  0  0
  -20.3032    2.6584   23.7368 N   0  0  0  0  0  0  0  0  0  0  0  0
  -21.4666    2.4556   22.8636 C   0  0  0  0  0  0  0  0  0  0  0  0
  -21.3029    1.3089   21.8652 C   0  0  0  0  0  0  0  0  0  0  0  0
  -20.0168    1.4601   21.0453 C   0  0  0  0  0  0  0  0  0  0  0  0
  -18.8186    1.6627   21.9779 C   0  0  0  0  0  0  0  0  0  0  0  0
  -19.0759    2.8128   22.9475 C   0  0  0  0  0  0  0  0  0  0  0  0
  -19.8432    0.2495   20.2371 N   0  0  0  0  0  0  0  0  0  0  0  0
  -18.9481   -0.0738   19.9851 H   0  0  0  0  0  0  0  0  0  0  0  0
  -20.9975   -0.4264   19.8391 C   0  0  0  0  0  0  0  0  0  0  0  0
  -21.3990   -1.6301   20.4460 C   0  0  0  0  0  0  0  0  0  0  0  0
  -20.8541   -2.4349   21.5053 C   0  0  0  0  0  0  0  0  0  0  0  0
  -21.6070   -3.5625   21.7683 C   0  0  0  0  0  0  0  0  0  0  0  0
  -22.9742   -3.6496   20.7398 S   0  0  0  0  0  0  0  0  0  0  0  0
  -22.5589   -2.1964   19.9514 C   0  0  0  0  0  0  0  0  0  0  0  0
  -23.3266   -1.7144   18.9652 N   0  0  0  0  0  0  0  0  0  0  0  0
  -22.8785   -0.5681   18.4573 C   0  0  0  0  0  0  0  0  0  0  0  0
  -21.7707    0.0768   18.8520 N   0  0  0  0  0  0  0  0  0  0  0  0
  -23.6545   -0.0356   17.4323 N   0  0  0  0  0  0  0  0  0  0  0  0
  -23.6802   -0.8495   16.2370 C   0  0  0  0  0  0  0  0  0  0  0  0
  -24.1410    0.8165   17.5133 H   0  0  0  0  0  0  0  0  0  0  0  0
  -21.3555   -4.6369   22.7893 C   0  0  0  0  0  0  0  0  0  0  0  0
  -19.9620   -5.2321   22.6983 C   0  0  0  0  0  0  0  0  0  0  0  0
  -19.5922   -5.4434   21.4146 F   0  0  0  0  0  0  0  0  0  0  0  0
  -19.0324   -4.4451   23.2805 F   0  0  0  0  0  0  0  0  0  0  0  0
  -19.9256   -6.4313   23.3270 F   0  0  0  0  0  0  0  0  0  0  0  0
 12 13  3  0
 13  2  1  0
  2  3  1  0
  3 14  1  0
 14 15  1  0
 15 17  1  0
 17 18  1  0
 18 19  1  0
 19 20  1  0
 20 23  1  0
 23 24  2  0
 23 25  1  0
 23 26  2  0
 20 21  1  0
 21 22  1  0
 17 22  1  0
 15 16  1  0
  2  4  2  0
  4  5  1  0
  5  6  2  0
  3  6  1  0
  6  7  1  0
  7  8  2  0
  8  9  1  0
  9  1  1  0
  1 27  1  0
 27 28  1  0
 28 29  1  0
 29 30  1  0
 30 33  1  0
 33 35  1  0
 35 36  2  0
 36 37  1  0
 37 38  2  0
 38 47  1  0
 47 48  1  0
 48 49  1  0
 48 50  1  0
 48 51  1  0
 38 39  1  0
 36 40  1  0
 39 40  1  0
 40 41  2  0
 41 42  1  0
 42 44  1  0
 44 45  1  0
 42 43  2  0
 35 43  1  0
 30 31  1  0
 31 32  1  0
 27 32  1  0
  9 10  2  0
  5 10  1  0
 10 11  1  0
 33 34  1  0
 44 46  1  0
M  END
> <minimizedAffinity>
-9.25857

> <CNNscore>
0.1228372231

> <CNNaffinity>
7.2000460625

> <CNN_VS>
0.8844336867

> <CNNaffinity_variance>
1.1033428907

$$$$
ziftomenib.sdf


 51 56  0  0  0  0  0  0  0  0999 V2000
  -22.4211    0.3037   22.3713 C   0  0  0  0  0  0  0  0  0  0  0  0
  -24.7245    2.3469   27.6636 C   0  0  0  0  0  0  0  0  0  0  0  0
  -25.6232    2.3007   26.6227 N   0  0  0  0  0  0  0  0  0  0  0  0
  -23.5227    1.8655   27.1957 C   0  0  0  0  0  0  0  0  0  0  0  0
  -23.6770    1.5251   25.8191 C   0  0  0  0  0  0  0  0  0  0  0  0
  -25.0066    1.8057   25.4856 C   0  0  0  0  0  0  0  0  0  0  0  0
  -25.5084    1.5834   24.1981 C   0  0  0  0  0  0  0  0  0  0  0  0
  -24.6343    1.0820   23.2351 C   0  0  0  0  0  0  0  0  0  0  0  0
  -23.2891    0.7985   23.5220 C   0  0  0  0  0  0  0  0  0  0  0  0
  -22.7860    1.0111   24.8343 C   0  0  0  0  0  0  0  0  0  0  0  0
  -21.3469    0.7088   25.1610 C   0  0  0  0  0  0  0  0  0  0  0  0
  -25.3060    3.2201   30.0225 N   0  0  0  0  0  0  0  0  0  0  0  0
  -25.0093    2.8201   28.9759 C   0  0  0  0  0  0  0  0  0  0  0  0
  -26.9991    2.7891   26.6925 C   0  0  0  0  0  0  0  0  0  0  0  0
  -28.0839    1.6790   26.5700 C   0  0  0  0  0  0  0  0  0  0  0  0
  -28.9520    1.9650   25.3278 C   0  0  0  0  0  0  0  0  0  0  0  0
  -28.9690    1.5620   27.7592 N   0  0  0  0  0  0  0  0  0  0  0  0
  -29.1362    0.1601   28.2259 C   0  0  0  0  0  0  0  0  0  0  0  0
  -28.4329   -0.1835   29.5566 C   0  0  0  0  0  0  0  0  0  0  0  0
  -28.8942    0.7095   30.6491 N   0  0  0  0  0  0  0  0  0  0  0  0
  -29.2920    2.0711   30.2141 C   0  0  0  0  0  0  0  0  0  0  0  0
  -28.6123    2.4495   28.8839 C   0  0  0  0  0  0  0  0  0  0  0  0
  -28.1894    0.5202   32.1660 S   0  0  0  0  0  0  0  0  0  0  0  0
  -29.1892    0.8343   33.1639 O   0  0  0  0  0  0  0  0  0  0  0  0
  -27.8780   -1.2349   32.2397 C   0  0  0  0  0  0  0  0  0  0  0  0
  -26.9086    1.1942   32.1455 O   0  0  0  0  0  0  0  0  0  0  0  0
  -23.1932    0.0170   21.1506 N   0  0  0  0  0  0  0  0  0  0  0  0
  -23.6788   -1.3673   21.0780 C   0  0  0  0  0  0  0  0  0  0  0  0
  -22.5908   -2.3922   20.7552 C   0  0  0  0  0  0  0  0  0  0  0  0
  -21.8205   -2.0099   19.4864 C   0  0  0  0  0  0  0  0  0  0  0  0
  -21.3189   -0.5662   19.5899 C   0  0  0  0  0  0  0  0  0  0  0  0
  -22.4652    0.3820   19.9300 C   0  0  0  0  0  0  0  0  0  0  0  0
  -20.6957   -2.9378   19.3356 N   0  0  0  0  0  0  0  0  0  0  0  0
  -19.7813   -2.6800   19.5936 H   0  0  0  0  0  0  0  0  0  0  0  0
  -20.9731   -4.2013   18.8118 C   0  0  0  0  0  0  0  0  0  0  0  0
  -20.6069   -5.3805   19.4854 C   0  0  0  0  0  0  0  0  0  0  0  0
  -19.9409   -5.6426   20.7322 C   0  0  0  0  0  0  0  0  0  0  0  0
  -19.7923   -6.9910   20.9917 C   0  0  0  0  0  0  0  0  0  0  0  0
  -20.4596   -7.9424   19.7329 S   0  0  0  0  0  0  0  0  0  0  0  0
  -20.9376   -6.5636   18.8517 C   0  0  0  0  0  0  0  0  0  0  0  0
  -21.5657   -6.6923   17.6757 N   0  0  0  0  0  0  0  0  0  0  0  0
  -21.8845   -5.5274   17.1152 C   0  0  0  0  0  0  0  0  0  0  0  0
  -21.6189   -4.3181   17.6309 N   0  0  0  0  0  0  0  0  0  0  0  0
  -22.5428   -5.6231   15.8930 N   0  0  0  0  0  0  0  0  0  0  0  0
  -23.7994   -4.9083   15.8497 C   0  0  0  0  0  0  0  0  0  0  0  0
  -22.1861   -6.1304   15.1284 H   0  0  0  0  0  0  0  0  0  0  0  0
  -19.1471   -7.6486   22.1796 C   0  0  0  0  0  0  0  0  0  0  0  0
  -17.6931   -8.0146   21.9423 C   0  0  0  0  0  0  0  0  0  0  0  0
  -17.3819   -7.9961   20.6262 F   0  0  0  0  0  0  0  0  0  0  0  0
  -16.8465   -7.1841   22.5872 F   0  0  0  0  0  0  0  0  0  0  0  0
  -17.4488   -9.2684   22.3929 F   0  0  0  0  0  0  0  0  0  0  0  0
 12 13  3  0
 13  2  1  0
  2  3  1  0
  3 14  1  0
 14 15  1  0
 15 17  1  0
 17 18  1  0
 18 19  1  0
 19 20  1  0
 20 23  1  0
 23 24  2  0
 23 25  1  0
 23 26  2  0
 20 21  1  0
 21 22  1  0
 17 22  1  0
 15 16  1  0
  2  4  2  0
  4  5  1  0
  5  6  2  0
  3  6  1  0
  6  7  1  0
  7  8  2  0
  8  9  1  0
  9  1  1  0
  1 27  1  0
 27 28  1  0
 28 29  1  0
 29 30  1  0
 30 33  1  0
 33 35  1  0
 35 36  2  0
 36 37  1  0
 37 38  2  0
 38 47  1  0
 47 48  1  0
 48 49  1  0
 48 50  1  0
 48 51  1  0
 38 39  1  0
 36 40  1  0
 39 40  1  0
 40 41  2  0
 41 42  1  0
 42 44  1  0
 44 45  1  0
 42 43  2  0
 35 43  1  0
 30 31  1  0
 31 32  1  0
 27 32  1  0
  9 10  2  0
  5 10  1  0
 10 11  1  0
 33 34  1  0
 44 46  1  0
M  END
> <minimizedAffinity>
-8.43105

> <CNNscore>
0.1090331823

> <CNNaffinity>
5.9053597450

> <CNN_VS>
0.6438801885

> <CNNaffinity_variance>
1.5138339996

$$$$
ziftomenib.sdf


 51 56  0  0  0  0  0  0  0  0999 V2000
  -21.0087    1.2471   24.4609 C   0  0  0  0  0  0  0  0  0  0  0  0
  -23.4384    3.4617   29.6263 C   0  0  0  0  0  0  0  0  0  0  0  0
  -24.3324    2.8301   28.7925 N   0  0  0  0  0  0  0  0  0  0  0  0
  -22.1948    3.3765   29.0420 C   0  0  0  0  0  0  0  0  0  0  0  0
  -22.3245    2.6848   27.8012 C   0  0  0  0  0  0  0  0  0  0  0  0
  -23.6770    2.3506   27.6706 C   0  0  0  0  0  0  0  0  0  0  0  0
  -24.1620    1.6536   26.5580 C   0  0  0  0  0  0  0  0  0  0  0  0
  -23.2541    1.3077   25.5585 C   0  0  0  0  0  0  0  0  0  0  0  0
  -21.8906    1.6341   25.6418 C   0  0  0  0  0  0  0  0  0  0  0  0
  -21.3982    2.3289   26.7799 C   0  0  0  0  0  0  0  0  0  0  0  0
  -19.9382    2.6838   26.8879 C   0  0  0  0  0  0  0  0  0  0  0  0
  -24.0708    4.5434   31.8834 N   0  0  0  0  0  0  0  0  0  0  0  0
  -23.7675    4.0898   30.8609 C   0  0  0  0  0  0  0  0  0  0  0  0
  -25.7741    2.7603   29.0225 C   0  0  0  0  0  0  0  0  0  0  0  0
  -26.5143    1.6998   28.1555 C   0  0  0  0  0  0  0  0  0  0  0  0
  -27.7934    2.3358   27.5740 C   0  0  0  0  0  0  0  0  0  0  0  0
  -26.8847    0.4637   28.8945 N   0  0  0  0  0  0  0  0  0  0  0  0
  -26.4018    0.4585   30.3010 C   0  0  0  0  0  0  0  0  0  0  0  0
  -27.4962    0.6211   31.3778 C   0  0  0  0  0  0  0  0  0  0  0  0
  -28.5265   -0.4406   31.2548 N   0  0  0  0  0  0  0  0  0  0  0  0
  -28.7466   -0.9376   29.8742 C   0  0  0  0  0  0  0  0  0  0  0  0
  -28.3173    0.1124   28.8313 C   0  0  0  0  0  0  0  0  0  0  0  0
  -29.8349   -0.3888   32.3125 S   0  0  0  0  0  0  0  0  0  0  0  0
  -29.6419    0.7339   33.2049 O   0  0  0  0  0  0  0  0  0  0  0  0
  -31.1999    0.0018   31.2322 C   0  0  0  0  0  0  0  0  0  0  0  0
  -30.0451   -1.7274   32.8215 O   0  0  0  0  0  0  0  0  0  0  0  0
  -21.7640    0.6332   23.3559 N   0  0  0  0  0  0  0  0  0  0  0  0
  -22.4740   -0.5928   23.7435 C   0  0  0  0  0  0  0  0  0  0  0  0
  -21.5628   -1.8062   23.9323 C   0  0  0  0  0  0  0  0  0  0  0  0
  -20.6839   -2.0434   22.6992 C   0  0  0  0  0  0  0  0  0  0  0  0
  -19.9494   -0.7537   22.3202 C   0  0  0  0  0  0  0  0  0  0  0  0
  -20.9319    0.4042   22.1692 C   0  0  0  0  0  0  0  0  0  0  0  0
  -19.7276   -3.1084   23.0157 N   0  0  0  0  0  0  0  0  0  0  0  0
  -18.7572   -2.9683   22.9262 H   0  0  0  0  0  0  0  0  0  0  0  0
  -20.2477   -4.3289   23.4487 C   0  0  0  0  0  0  0  0  0  0  0  0
  -19.8195   -5.5530   22.9042 C   0  0  0  0  0  0  0  0  0  0  0  0
  -18.8606   -5.9055   21.8927 C   0  0  0  0  0  0  0  0  0  0  0  0
  -18.7738   -7.2678   21.6827 C   0  0  0  0  0  0  0  0  0  0  0  0
  -19.8466   -8.1234   22.7082 S   0  0  0  0  0  0  0  0  0  0  0  0
  -20.4209   -6.6853   23.4209 C   0  0  0  0  0  0  0  0  0  0  0  0
  -21.3573   -6.7274   24.3777 N   0  0  0  0  0  0  0  0  0  0  0  0
  -21.6937   -5.5261   24.8429 C   0  0  0  0  0  0  0  0  0  0  0  0
  -21.1823   -4.3591   24.4238 N   0  0  0  0  0  0  0  0  0  0  0  0
  -22.6620   -5.5320   25.8422 N   0  0  0  0  0  0  0  0  0  0  0  0
  -23.7893   -4.6686   25.5671 C   0  0  0  0  0  0  0  0  0  0  0  0
  -22.5868   -6.0739   26.6607 H   0  0  0  0  0  0  0  0  0  0  0  0
  -17.8979   -8.0097   20.7120 C   0  0  0  0  0  0  0  0  0  0  0  0
  -18.5315   -8.1746   19.3423 C   0  0  0  0  0  0  0  0  0  0  0  0
  -17.5989   -8.2307   18.3643 F   0  0  0  0  0  0  0  0  0  0  0  0
  -19.2924   -9.2868   19.2631 F   0  0  0  0  0  0  0  0  0  0  0  0
  -19.3332   -7.1176   19.0696 F   0  0  0  0  0  0  0  0  0  0  0  0
 12 13  3  0
 13  2  1  0
  2  3  1  0
  3 14  1  0
 14 15  1  0
 15 17  1  0
 17 18  1  0
 18 19  1  0
 19 20  1  0
 20 23  1  0
 23 24  2  0
 23 25  1  0
 23 26  2  0
 20 21  1  0
 21 22  1  0
 17 22  1  0
 15 16  1  0
  2  4  2  0
  4  5  1  0
  5  6  2  0
  3  6  1  0
  6  7  1  0
  7  8  2  0
  8  9  1  0
  9  1  1  0
  1 27  1  0
 27 28  1  0
 28 29  1  0
 29 30  1  0
 30 33  1  0
 33 35  1  0
 35 36  2  0
 36 37  1  0
 37 38  2  0
 38 47  1  0
 47 48  1  0
 48 49  1  0
 48 50  1  0
 48 51  1  0
 38 39  1  0
 36 40  1  0
 39 40  1  0
 40 41  2  0
 41 42  1  0
 42 44  1  0
 44 45  1  0
 42 43  2  0
 35 43  1  0
 30 31  1  0
 31 32  1  0
 27 32  1  0
  9 10  2  0
  5 10  1  0
 10 11  1  0
 33 34  1  0
 44 46  1  0
M  END
> <minimizedAffinity>
-9.49997

> <CNNscore>
0.1050946563

> <CNNaffinity>
7.0242180824

> <CNN_VS>
0.7382077575

> <CNNaffinity_variance>
0.6181072593

$$$$
