ziftomenib.sdf
     RDKit          3D

 51 56  0  0  0  0  0  0  0  0999 V2000
  -22.8068   -2.2712   17.4373 C   0  0  0  0  0  0  0  0  0  0  0  0
  -21.1880   -8.0998   18.3835 C   0  0  0  0  0  0  0  0  0  0  0  0
  -20.5469   -7.1851   19.1871 N   0  0  0  0  0  0  0  0  0  0  0  0
  -22.0717   -7.4058   17.5882 C   0  0  0  0  0  0  0  0  0  0  0  0
  -21.9640   -6.0174   17.8973 C   0  0  0  0  0  0  0  0  0  0  0  0
  -21.0013   -5.9072   18.9067 C   0  0  0  0  0  0  0  0  0  0  0  0
  -20.6452   -4.6703   19.4566 C   0  0  0  0  0  0  0  0  0  0  0  0
  -21.2710   -3.5297   18.9563 C   0  0  0  0  0  0  0  0  0  0  0  0
  -22.2331   -3.5922   17.9350 C   0  0  0  0  0  0  0  0  0  0  0  0
  -22.6037   -4.8511   17.3888 C   0  0  0  0  0  0  0  0  0  0  0  0
  -23.6366   -4.9374   16.2958 C   0  0  0  0  0  0  0  0  0  0  0  0
  -20.7139  -10.6369   18.4377 N   0  0  0  0  0  0  0  0  0  0  0  0
  -20.9545   -9.5043   18.3874 C   0  0  0  0  0  0  0  0  0  0  0  0
  -19.4801   -7.5139   20.1306 C   0  0  0  0  0  0  0  0  0  0  0  0
  -19.8957   -7.4278   21.6286 C   0  0  2  0  0  0  0  0  0  0  0  0
  -19.2965   -6.1446   22.2393 C   0  0  0  0  0  0  0  0  0  0  0  0
  -19.4675   -8.5946   22.4449 N   0  0  0  0  0  0  0  0  0  0  0  0
  -20.5292   -9.6256   22.5904 C   0  0  0  0  0  0  0  0  0  0  0  0
  -20.2892  -10.9380   21.8135 C   0  0  0  0  0  0  0  0  0  0  0  0
  -19.0019  -11.5630   22.2085 N   0  0  0  0  0  0  0  0  0  0  0  0
  -17.9474  -10.6063   22.6255 C   0  0  0  0  0  0  0  0  0  0  0  0
  -18.1940   -9.2103   22.0215 C   0  0  0  0  0  0  0  0  0  0  0  0
  -18.5428  -12.9771   21.4190 S   0  0  0  0  0  0  0  0  0  0  0  0
  -17.1022  -13.0859   21.5022 O   0  0  0  0  0  0  0  0  0  0  0  0
  -19.2464  -14.2509   22.4510 C   0  0  0  0  0  0  0  0  0  0  0  0
  -19.2281  -13.0141   20.1446 O   0  0  0  0  0  0  0  0  0  0  0  0
  -24.1533   -1.9938   17.9650 N   0  0  0  0  0  0  0  0  0  0  0  0
  -24.6473   -0.6519   17.6296 C   0  0  0  0  0  0  0  0  0  0  0  0
  -23.9889    0.4718   18.4309 C   0  0  0  0  0  0  0  0  0  0  0  0
  -24.0789    0.2110   19.9386 C   0  0  0  0  0  0  0  0  0  0  0  0
  -23.5516   -1.1901   20.2630 C   0  0  0  0  0  0  0  0  0  0  0  0
  -24.2507   -2.2429   19.4078 C   0  0  0  0  0  0  0  0  0  0  0  0
  -23.2871    1.2335   20.6290 N   0  0  0  0  0  0  0  0  0  0  0  0
  -22.3229    1.3359   20.4585 H   0  0  0  0  0  0  0  0  0  0  0  0
  -23.9548    2.0560   21.5375 C   0  0  0  0  0  0  0  0  0  0  0  0
  -23.3674    2.4483   22.7538 C   0  0  0  0  0  0  0  0  0  0  0  0
  -22.0948    2.1858   23.3690 C   0  0  0  0  0  0  0  0  0  0  0  0
  -21.9546    2.7955   24.6003 C   0  0  0  0  0  0  0  0  0  0  0  0
  -23.3569    3.6886   25.0138 S   0  0  0  0  0  0  0  0  0  0  0  0
  -24.1411    3.2597   23.5623 C   0  0  0  0  0  0  0  0  0  0  0  0
  -25.3779    3.7028   23.3010 N   0  0  0  0  0  0  0  0  0  0  0  0
  -25.8501    3.2927   22.1256 C   0  0  0  0  0  0  0  0  0  0  0  0
  -25.1969    2.5072   21.2566 N   0  0  0  0  0  0  0  0  0  0  0  0
  -27.1323    3.7380   21.8189 N   0  0  0  0  0  0  0  0  0  0  0  0
  -28.1610    2.7432   22.0287 C   0  0  0  0  0  0  0  0  0  0  0  0
  -27.3217    4.6463   21.4896 H   0  0  0  0  0  0  0  0  0  0  0  0
  -20.7807    2.7485   25.5382 C   0  0  0  0  0  0  0  0  0  0  0  0
  -19.6050    3.5841   25.0649 C   0  0  0  0  0  0  0  0  0  0  0  0
  -19.9371    4.3595   24.0077 F   0  0  0  0  0  0  0  0  0  0  0  0
  -19.1230    4.3842   26.0395 F   0  0  0  0  0  0  0  0  0  0  0  0
  -18.5914    2.7787   24.6667 F   0  0  0  0  0  0  0  0  0  0  0  0
 12 13  3  0
 13  2  1  0
  2  3  1  0
  3 14  1  0
 14 15  1  0
 15 17  1  0
 17 18  1  0
 18 19  1  0
 19 20  1  0
 20 23  1  0
 23 24  2  0
 23 25  1  0
 23 26  2  0
 20 21  1  0
 21 22  1  0
 17 22  1  0
 15 16  1  1
  2  4  2  0
  4  5  1  0
  5  6  2  0
  3  6  1  0
  6  7  1  0
  7  8  2  0
  8  9  1  0
  9  1  1  0
  1 27  1  0
 27 28  1  0
 28 29  1  0
 29 30  1  0
 30 33  1  0
 33 35  1  0
 35 36  2  0
 36 37  1  0
 37 38  2  0
 38 47  1  0
 47 48  1  0
 48 49  1  0
 48 50  1  0
 48 51  1  0
 38 39  1  0
 36 40  1  0
 39 40  1  0
 40 41  2  0
 41 42  1  0
 42 44  1  0
 44 45  1  0
 42 43  2  0
 35 43  1  0
 30 31  1  0
 31 32  1  0
 27 32  1  0
  9 10  2  0
  5 10  1  0
 10 11  1  0
 33 34  1  0
 44 46  1  0
M  END
>  <minimizedAffinity>  (1) 
-8.30938

>  <CNNscore>  (1) 
0.1684126109

>  <CNNaffinity>  (1) 
6.5238442421

>  <CNN_VS>  (1) 
1.0986976624

>  <CNNaffinity_variance>  (1) 
1.2592447996

$$$$
