ziftomenib.sdf


 51 56  0  0  0  0  0  0  0  0999 V2000
  -22.2362   -3.9323   24.2481 C   0  0  0  0  0  0  0  0  0  0  0  0
  -19.2864   -7.2850   20.0593 C   0  0  0  0  0  0  0  0  0  0  0  0
  -19.2833   -7.8149   21.3291 N   0  0  0  0  0  0  0  0  0  0  0  0
  -20.0153   -6.1178   20.0987 C   0  0  0  0  0  0  0  0  0  0  0  0
  -20.4645   -5.9100   21.4365 C   0  0  0  0  0  0  0  0  0  0  0  0
  -19.9931   -6.9921   22.1879 C   0  0  0  0  0  0  0  0  0  0  0  0
  -20.2569   -7.1121   23.5572 C   0  0  0  0  0  0  0  0  0  0  0  0
  -20.9998   -6.1036   24.1690 C   0  0  0  0  0  0  0  0  0  0  0  0
  -21.4816   -4.9934   23.4565 C   0  0  0  0  0  0  0  0  0  0  0  0
  -21.2249   -4.8817   22.0629 C   0  0  0  0  0  0  0  0  0  0  0  0
  -21.7372   -3.6999   21.2821 C   0  0  0  0  0  0  0  0  0  0  0  0
  -18.1586   -8.2922   17.9669 N   0  0  0  0  0  0  0  0  0  0  0  0
  -18.6375   -7.8561   18.9280 C   0  0  0  0  0  0  0  0  0  0  0  0
  -18.5585   -9.0217   21.7225 C   0  0  0  0  0  0  0  0  0  0  0  0
  -19.3686   -9.9924   22.6312 C   0  0  0  0  0  0  0  0  0  0  0  0
  -18.3825  -10.8945   23.4009 C   0  0  0  0  0  0  0  0  0  0  0  0
  -20.3319  -10.8520   21.8935 N   0  0  0  0  0  0  0  0  0  0  0  0
  -20.2562  -10.6796   20.4184 C   0  0  0  0  0  0  0  0  0  0  0  0
  -19.6426  -11.8654   19.6434 C   0  0  0  0  0  0  0  0  0  0  0  0
  -20.3908  -13.1198   19.9091 N   0  0  0  0  0  0  0  0  0  0  0  0
  -21.0114  -13.2014   21.2543 C   0  0  0  0  0  0  0  0  0  0  0  0
  -20.2867  -12.2824   22.2566 C   0  0  0  0  0  0  0  0  0  0  0  0
  -19.8273  -14.5348   19.1925 S   0  0  0  0  0  0  0  0  0  0  0  0
  -19.3923  -14.2118   17.8507 O   0  0  0  0  0  0  0  0  0  0  0  0
  -18.3769  -14.9156   20.1591 C   0  0  0  0  0  0  0  0  0  0  0  0
  -20.8049  -15.5738   19.4372 O   0  0  0  0  0  0  0  0  0  0  0  0
  -21.7169   -3.7566   25.6148 N   0  0  0  0  0  0  0  0  0  0  0  0
  -22.7710   -3.6683   26.6337 C   0  0  0  0  0  0  0  0  0  0  0  0
  -23.5232   -2.3370   26.6372 C   0  0  0  0  0  0  0  0  0  0  0  0
  -22.5589   -1.1497   26.7360 C   0  0  0  0  0  0  0  0  0  0  0  0
  -21.4747   -1.2609   25.6595 C   0  0  0  0  0  0  0  0  0  0  0  0
  -20.7903   -2.6236   25.7195 C   0  0  0  0  0  0  0  0  0  0  0  0
  -23.3317    0.0842   26.5651 N   0  0  0  0  0  0  0  0  0  0  0  0
  -23.9237    0.2142   25.7892 H   0  0  0  0  0  0  0  0  0  0  0  0
  -23.1946    1.0674   27.5460 C   0  0  0  0  0  0  0  0  0  0  0  0
  -22.2311    2.0870   27.4451 C   0  0  0  0  0  0  0  0  0  0  0  0
  -21.2328    2.4124   26.4631 C   0  0  0  0  0  0  0  0  0  0  0  0
  -20.4942    3.5314   26.7946 C   0  0  0  0  0  0  0  0  0  0  0  0
  -21.0069    4.1929   28.2894 S   0  0  0  0  0  0  0  0  0  0  0  0
  -22.2004    2.9922   28.4893 C   0  0  0  0  0  0  0  0  0  0  0  0
  -22.9902    2.9920   29.5711 N   0  0  0  0  0  0  0  0  0  0  0  0
  -23.8786    2.0003   29.5782 C   0  0  0  0  0  0  0  0  0  0  0  0
  -24.0061    1.0641   28.6262 N   0  0  0  0  0  0  0  0  0  0  0  0
  -24.7196    1.9716   30.6864 N   0  0  0  0  0  0  0  0  0  0  0  0
  -25.7736    0.9856   30.5933 C   0  0  0  0  0  0  0  0  0  0  0  0
  -24.6075    2.5674   31.4621 H   0  0  0  0  0  0  0  0  0  0  0  0
  -19.3692    4.1694   26.0283 C   0  0  0  0  0  0  0  0  0  0  0  0
  -18.0909    3.3508   26.0529 C   0  0  0  0  0  0  0  0  0  0  0  0
  -17.0290    4.0948   26.4375 F   0  0  0  0  0  0  0  0  0  0  0  0
  -18.1822    2.2877   26.8798 F   0  0  0  0  0  0  0  0  0  0  0  0
  -17.8181    2.8756   24.8143 F   0  0  0  0  0  0  0  0  0  0  0  0
 12 13  3  0
 13  2  1  0
  2  3  1  0
  3 14  1  0
 14 15  1  0
 15 17  1  0
 17 18  1  0
 18 19  1  0
 19 20  1  0
 20 23  1  0
 23 24  2  0
 23 25  1  0
 23 26  2  0
 20 21  1  0
 21 22  1  0
 17 22  1  0
 15 16  1  0
  2  4  2  0
  4  5  1  0
  5  6  2  0
  3  6  1  0
  6  7  1  0
  7  8  2  0
  8  9  1  0
  9  1  1  0
  1 27  1  0
 27 28  1  0
 28 29  1  0
 29 30  1  0
 30 33  1  0
 33 35  1  0
 35 36  2  0
 36 37  1  0
 37 38  2  0
 38 47  1  0
 47 48  1  0
 48 49  1  0
 48 50  1  0
 48 51  1  0
 38 39  1  0
 36 40  1  0
 39 40  1  0
 40 41  2  0
 41 42  1  0
 42 44  1  0
 44 45  1  0
 42 43  2  0
 35 43  1  0
 30 31  1  0
 31 32  1  0
 27 32  1  0
  9 10  2  0
  5 10  1  0
 10 11  1  0
 33 34  1  0
 44 46  1  0
M  END
> <minimizedAffinity>
-8.81143

> <CNNscore>
0.5418357253

> <CNNaffinity>
7.5956168175

> <CNN_VS>
4.1155767441

> <CNNaffinity_variance>
0.4794393778

$$$$
ziftomenib.sdf


 51 56  0  0  0  0  0  0  0  0999 V2000
  -21.8561   -4.1203   25.0615 C   0  0  0  0  0  0  0  0  0  0  0  0
  -19.4260   -7.1808   20.3480 C   0  0  0  0  0  0  0  0  0  0  0  0
  -20.6512   -7.6457   20.7679 N   0  0  0  0  0  0  0  0  0  0  0  0
  -19.1069   -6.0911   21.1264 C   0  0  0  0  0  0  0  0  0  0  0  0
  -20.1587   -5.8838   22.0673 C   0  0  0  0  0  0  0  0  0  0  0  0
  -21.1170   -6.8724   21.8182 C   0  0  0  0  0  0  0  0  0  0  0  0
  -22.2976   -6.9624   22.5648 C   0  0  0  0  0  0  0  0  0  0  0  0
  -22.4929   -6.0383   23.5899 C   0  0  0  0  0  0  0  0  0  0  0  0
  -21.5520   -5.0377   23.8834 C   0  0  0  0  0  0  0  0  0  0  0  0
  -20.3610   -4.9394   23.1139 C   0  0  0  0  0  0  0  0  0  0  0  0
  -19.3427   -3.8702   23.4120 C   0  0  0  0  0  0  0  0  0  0  0  0
  -18.0299   -8.2729   18.4711 N   0  0  0  0  0  0  0  0  0  0  0  0
  -18.6458   -7.7480   19.3008 C   0  0  0  0  0  0  0  0  0  0  0  0
  -21.3129   -8.8360   20.2372 C   0  0  0  0  0  0  0  0  0  0  0  0
  -20.6582   -9.4171   18.9496 C   0  0  0  0  0  0  0  0  0  0  0  0
  -21.6213   -9.2091   17.7630 C   0  0  0  0  0  0  0  0  0  0  0  0
  -20.3139  -10.8607   19.0427 N   0  0  0  0  0  0  0  0  0  0  0  0
  -18.9049  -11.0988   19.4540 C   0  0  0  0  0  0  0  0  0  0  0  0
  -18.7164  -11.6544   20.8820 C   0  0  0  0  0  0  0  0  0  0  0  0
  -19.4555  -12.9296   21.0593 N   0  0  0  0  0  0  0  0  0  0  0  0
  -20.6902  -13.0518   20.2458 C   0  0  0  0  0  0  0  0  0  0  0  0
  -21.2419  -11.6650   19.8624 C   0  0  0  0  0  0  0  0  0  0  0  0
  -19.4140  -13.6545   22.5780 S   0  0  0  0  0  0  0  0  0  0  0  0
  -18.8185  -12.7151   23.5036 O   0  0  0  0  0  0  0  0  0  0  0  0
  -21.1432  -13.8046   22.9904 C   0  0  0  0  0  0  0  0  0  0  0  0
  -18.8823  -14.9909   22.4155 O   0  0  0  0  0  0  0  0  0  0  0  0
  -22.6865   -2.9626   24.6896 N   0  0  0  0  0  0  0  0  0  0  0  0
  -21.9418   -1.6971   24.6524 C   0  0  0  0  0  0  0  0  0  0  0  0
  -21.5968   -1.1374   26.0330 C   0  0  0  0  0  0  0  0  0  0  0  0
  -22.8437   -1.0186   26.9163 C   0  0  0  0  0  0  0  0  0  0  0  0
  -23.5978   -2.3517   26.9446 C   0  0  0  0  0  0  0  0  0  0  0  0
  -23.8846   -2.8414   25.5280 C   0  0  0  0  0  0  0  0  0  0  0  0
  -22.4152   -0.6389   28.2658 N   0  0  0  0  0  0  0  0  0  0  0  0
  -21.9324   -1.2707   28.8464 H   0  0  0  0  0  0  0  0  0  0  0  0
  -22.7191    0.6538   28.6948 C   0  0  0  0  0  0  0  0  0  0  0  0
  -21.8530    1.7367   28.4589 C   0  0  0  0  0  0  0  0  0  0  0  0
  -20.5797    1.8617   27.8031 C   0  0  0  0  0  0  0  0  0  0  0  0
  -20.0909    3.1533   27.8153 C   0  0  0  0  0  0  0  0  0  0  0  0
  -21.1694    4.2175   28.6148 S   0  0  0  0  0  0  0  0  0  0  0  0
  -22.2743    2.9613   28.9421 C   0  0  0  0  0  0  0  0  0  0  0  0
  -23.4125    3.2117   29.6023 N   0  0  0  0  0  0  0  0  0  0  0  0
  -24.1753    2.1335   29.7707 C   0  0  0  0  0  0  0  0  0  0  0  0
  -23.8765    0.8961   29.3482 N   0  0  0  0  0  0  0  0  0  0  0  0
  -25.3691    2.3576   30.4497 N   0  0  0  0  0  0  0  0  0  0  0  0
  -26.3669    1.3341   30.2286 C   0  0  0  0  0  0  0  0  0  0  0  0
  -25.5205    3.1404   31.0272 H   0  0  0  0  0  0  0  0  0  0  0  0
  -18.8011    3.6699   27.2414 C   0  0  0  0  0  0  0  0  0  0  0  0
  -18.6740    3.4296   25.7478 C   0  0  0  0  0  0  0  0  0  0  0  0
  -19.3375    4.3667   25.0331 F   0  0  0  0  0  0  0  0  0  0  0  0
  -17.3871    3.4218   25.3403 F   0  0  0  0  0  0  0  0  0  0  0  0
  -19.2070    2.2277   25.4224 F   0  0  0  0  0  0  0  0  0  0  0  0
 12 13  3  0
 13  2  1  0
  2  3  1  0
  3 14  1  0
 14 15  1  0
 15 17  1  0
 17 18  1  0
 18 19  1  0
 19 20  1  0
 20 23  1  0
 23 24  2  0
 23 25  1  0
 23 26  2  0
 20 21  1  0
 21 22  1  0
 17 22  1  0
 15 16  1  0
  2  4  2  0
  4  5  1  0
  5  6  2  0
  3  6  1  0
  6  7  1  0
  7  8  2  0
  8  9  1  0
  9  1  1  0
  1 27  1  0
 27 28  1  0
 28 29  1  0
 29 30  1  0
 30 33  1  0
 33 35  1  0
 35 36  2  0
 36 37  1  0
 37 38  2  0
 38 47  1  0
 47 48  1  0
 48 49  1  0
 48 50  1  0
 48 51  1  0
 38 39  1  0
 36 40  1  0
 39 40  1  0
 40 41  2  0
 41 42  1  0
 42 44  1  0
 44 45  1  0
 42 43  2  0
 35 43  1  0
 30 31  1  0
 31 32  1  0
 27 32  1  0
  9 10  2  0
  5 10  1  0
 10 11  1  0
 33 34  1  0
 44 46  1  0
M  END
> <minimizedAffinity>
-8.42791

> <CNNscore>
0.5246685147

> <CNNaffinity>
7.6421561241

> <CNN_VS>
4.0095987320

> <CNNaffinity_variance>
0.2133375853

$$$$
ziftomenib.sdf


 51 56  0  0  0  0  0  0  0  0999 V2000
  -21.5166   -5.1751   24.9455 C   0  0  0  0  0  0  0  0  0  0  0  0
  -18.8233   -8.0185   20.2391 C   0  0  0  0  0  0  0  0  0  0  0  0
  -19.9043   -8.6823   20.7723 N   0  0  0  0  0  0  0  0  0  0  0  0
  -18.6787   -6.8377   20.9318 C   0  0  0  0  0  0  0  0  0  0  0  0
  -19.6911   -6.7748   21.9348 C   0  0  0  0  0  0  0  0  0  0  0  0
  -20.4485   -7.9447   21.8106 C   0  0  0  0  0  0  0  0  0  0  0  0
  -21.5399   -8.2108   22.6455 C   0  0  0  0  0  0  0  0  0  0  0  0
  -21.8508   -7.2749   23.6306 C   0  0  0  0  0  0  0  0  0  0  0  0
  -21.1101   -6.0937   23.7996 C   0  0  0  0  0  0  0  0  0  0  0  0
  -20.0115   -5.8190   22.9406 C   0  0  0  0  0  0  0  0  0  0  0  0
  -19.2083   -4.5552   23.1048 C   0  0  0  0  0  0  0  0  0  0  0  0
  -17.3554   -8.8162   18.2709 N   0  0  0  0  0  0  0  0  0  0  0  0
  -18.0121   -8.4934   19.1697 C   0  0  0  0  0  0  0  0  0  0  0  0
  -20.3490  -10.0112   20.3568 C   0  0  0  0  0  0  0  0  0  0  0  0
  -19.7624  -11.1803   21.2015 C   0  0  0  0  0  0  0  0  0  0  0  0
  -18.5615  -10.6548   22.0140 C   0  0  0  0  0  0  0  0  0  0  0  0
  -19.3232  -12.3500   20.3953 N   0  0  0  0  0  0  0  0  0  0  0  0
  -19.5446  -13.6492   21.0842 C   0  0  0  0  0  0  0  0  0  0  0  0
  -20.6736  -14.5251   20.4996 C   0  0  0  0  0  0  0  0  0  0  0  0
  -20.4331  -14.8157   19.0638 N   0  0  0  0  0  0  0  0  0  0  0  0
  -19.6994  -13.7561   18.3286 C   0  0  0  0  0  0  0  0  0  0  0  0
  -19.8591  -12.3884   19.0201 C   0  0  0  0  0  0  0  0  0  0  0  0
  -21.5956  -15.7125   18.2406 S   0  0  0  0  0  0  0  0  0  0  0  0
  -21.0160  -16.9969   17.9109 O   0  0  0  0  0  0  0  0  0  0  0  0
  -22.8425  -15.9811   19.4880 C   0  0  0  0  0  0  0  0  0  0  0  0
  -22.1696  -14.8615   17.2201 O   0  0  0  0  0  0  0  0  0  0  0  0
  -22.6413   -4.2892   24.6011 N   0  0  0  0  0  0  0  0  0  0  0  0
  -22.2213   -2.9394   24.2026 C   0  0  0  0  0  0  0  0  0  0  0  0
  -21.7534   -2.0645   25.3662 C   0  0  0  0  0  0  0  0  0  0  0  0
  -22.8025   -2.0095   26.4822 C   0  0  0  0  0  0  0  0  0  0  0  0
  -23.2181   -3.4279   26.8846 C   0  0  0  0  0  0  0  0  0  0  0  0
  -23.6529   -4.2316   25.6624 C   0  0  0  0  0  0  0  0  0  0  0  0
  -22.2203   -1.2984   27.6243 N   0  0  0  0  0  0  0  0  0  0  0  0
  -21.5271   -1.7137   28.1867 H   0  0  0  0  0  0  0  0  0  0  0  0
  -22.6878   -0.0091   27.8825 C   0  0  0  0  0  0  0  0  0  0  0  0
  -22.1053    1.1245   27.2876 C   0  0  0  0  0  0  0  0  0  0  0  0
  -21.0190    1.3105   26.3645 C   0  0  0  0  0  0  0  0  0  0  0  0
  -20.7964    2.6375   26.0532 C   0  0  0  0  0  0  0  0  0  0  0  0
  -21.9004    3.6605   26.8716 S   0  0  0  0  0  0  0  0  0  0  0  0
  -22.6632    2.3407   27.6347 C   0  0  0  0  0  0  0  0  0  0  0  0
  -23.6914    2.5395   28.4697 N   0  0  0  0  0  0  0  0  0  0  0  0
  -24.1874    1.4128   28.9768 C   0  0  0  0  0  0  0  0  0  0  0  0
  -23.7343    0.1775   28.7165 N   0  0  0  0  0  0  0  0  0  0  0  0
  -25.2607    1.5813   29.8463 N   0  0  0  0  0  0  0  0  0  0  0  0
  -24.9832    2.4749   30.9491 C   0  0  0  0  0  0  0  0  0  0  0  0
  -26.1287    1.1336   29.7222 H   0  0  0  0  0  0  0  0  0  0  0  0
  -19.7556    3.2211   25.1389 C   0  0  0  0  0  0  0  0  0  0  0  0
  -18.3956    3.3650   25.7979 C   0  0  0  0  0  0  0  0  0  0  0  0
  -18.1925    4.6217   26.2546 F   0  0  0  0  0  0  0  0  0  0  0  0
  -18.2366    2.5105   26.8308 F   0  0  0  0  0  0  0  0  0  0  0  0
  -17.4139    3.1019   24.9025 F   0  0  0  0  0  0  0  0  0  0  0  0
 12 13  3  0
 13  2  1  0
  2  3  1  0
  3 14  1  0
 14 15  1  0
 15 17  1  0
 17 18  1  0
 18 19  1  0
 19 20  1  0
 20 23  1  0
 23 24  2  0
 23 25  1  0
 23 26  2  0
 20 21  1  0
 21 22  1  0
 17 22  1  0
 15 16  1  0
  2  4  2  0
  4  5  1  0
  5  6  2  0
  3  6  1  0
  6  7  1  0
  7  8  2  0
  8  9  1  0
  9  1  1  0
  1 27  1  0
 27 28  1  0
 28 29  1  0
 29 30  1  0
 30 33  1  0
 33 35  1  0
 35 36  2  0
 36 37  1  0
 37 38  2  0
 38 47  1  0
 47 48  1  0
 48 49  1  0
 48 50  1  0
 48 51  1  0
 38 39  1  0
 36 40  1  0
 39 40  1  0
 40 41  2  0
 41 42  1  0
 42 44  1  0
 44 45  1  0
 42 43  2  0
 35 43  1  0
 30 31  1  0
 31 32  1  0
 27 32  1  0
  9 10  2  0
  5 10  1  0
 10 11  1  0
 33 34  1  0
 44 46  1  0
M  END
> <minimizedAffinity>
-8.31725

> <CNNscore>
0.4469017982

> <CNNaffinity>
7.5335431099

> <CNN_VS>
3.3667540550

> <CNNaffinity_variance>
0.1830401421

$$$$
ziftomenib.sdf


 51 56  0  0  0  0  0  0  0  0999 V2000
  -21.9947   -1.8771   25.1643 C   0  0  0  0  0  0  0  0  0  0  0  0
  -20.5245   -5.8603   20.7528 C   0  0  0  0  0  0  0  0  0  0  0  0
  -20.6232   -6.4049   22.0126 N   0  0  0  0  0  0  0  0  0  0  0  0
  -20.8330   -4.5225   20.8539 C   0  0  0  0  0  0  0  0  0  0  0  0
  -21.1163   -4.2256   22.2200 C   0  0  0  0  0  0  0  0  0  0  0  0
  -20.9799   -5.4263   22.9254 C   0  0  0  0  0  0  0  0  0  0  0  0
  -21.1926   -5.5003   24.3069 C   0  0  0  0  0  0  0  0  0  0  0  0
  -21.5341   -4.3272   24.9778 C   0  0  0  0  0  0  0  0  0  0  0  0
  -21.6690   -3.0978   24.3123 C   0  0  0  0  0  0  0  0  0  0  0  0
  -21.4671   -3.0286   22.9070 C   0  0  0  0  0  0  0  0  0  0  0  0
  -21.6115   -1.7193   22.1762 C   0  0  0  0  0  0  0  0  0  0  0  0
  -19.8332   -7.2009   18.6577 N   0  0  0  0  0  0  0  0  0  0  0  0
  -20.1588   -6.5721   19.5752 C   0  0  0  0  0  0  0  0  0  0  0  0
  -20.3076   -7.7933   22.3430 C   0  0  0  0  0  0  0  0  0  0  0  0
  -18.8411   -8.0269   22.8110 C   0  0  0  0  0  0  0  0  0  0  0  0
  -17.9752   -6.8365   22.3508 C   0  0  0  0  0  0  0  0  0  0  0  0
  -18.2360   -9.2868   22.3034 N   0  0  0  0  0  0  0  0  0  0  0  0
  -18.2474  -10.3846   23.3065 C   0  0  0  0  0  0  0  0  0  0  0  0
  -19.2345  -11.5360   23.0174 C   0  0  0  0  0  0  0  0  0  0  0  0
  -18.9680  -12.1456   21.6904 N   0  0  0  0  0  0  0  0  0  0  0  0
  -18.4141  -11.2140   20.6772 C   0  0  0  0  0  0  0  0  0  0  0  0
  -18.7747   -9.7533   21.0103 C   0  0  0  0  0  0  0  0  0  0  0  0
  -19.9876  -13.3829   21.1777 S   0  0  0  0  0  0  0  0  0  0  0  0
  -19.2863  -14.6372   21.3480 O   0  0  0  0  0  0  0  0  0  0  0  0
  -21.3072  -13.3288   22.3771 C   0  0  0  0  0  0  0  0  0  0  0  0
  -20.5406  -12.9977   19.8967 O   0  0  0  0  0  0  0  0  0  0  0  0
  -23.0557   -2.1322   26.1529 N   0  0  0  0  0  0  0  0  0  0  0  0
  -24.3347   -1.4939   25.8154 C   0  0  0  0  0  0  0  0  0  0  0  0
  -24.3517    0.0195   26.0340 C   0  0  0  0  0  0  0  0  0  0  0  0
  -23.9105    0.3845   27.4558 C   0  0  0  0  0  0  0  0  0  0  0  0
  -22.5724   -0.2866   27.7805 C   0  0  0  0  0  0  0  0  0  0  0  0
  -22.6423   -1.7883   27.5182 C   0  0  0  0  0  0  0  0  0  0  0  0
  -23.7902    1.8432   27.5384 N   0  0  0  0  0  0  0  0  0  0  0  0
  -23.6762    2.2993   28.4033 H   0  0  0  0  0  0  0  0  0  0  0  0
  -23.8437    2.5594   26.3418 C   0  0  0  0  0  0  0  0  0  0  0  0
  -22.6861    2.8455   25.5959 C   0  0  0  0  0  0  0  0  0  0  0  0
  -21.2919    2.5451   25.7770 C   0  0  0  0  0  0  0  0  0  0  0  0
  -20.4965    3.0430   24.7638 C   0  0  0  0  0  0  0  0  0  0  0  0
  -21.4313    3.8704   23.5906 S   0  0  0  0  0  0  0  0  0  0  0  0
  -22.8818    3.5670   24.4331 C   0  0  0  0  0  0  0  0  0  0  0  0
  -24.0515    4.0114   23.9553 N   0  0  0  0  0  0  0  0  0  0  0  0
  -25.0933    3.6860   24.7178 C   0  0  0  0  0  0  0  0  0  0  0  0
  -25.0312    2.9911   25.8633 N   0  0  0  0  0  0  0  0  0  0  0  0
  -26.3266    4.1283   24.2491 N   0  0  0  0  0  0  0  0  0  0  0  0
  -26.4144    4.1898   22.8067 C   0  0  0  0  0  0  0  0  0  0  0  0
  -27.0705    4.3764   24.8442 H   0  0  0  0  0  0  0  0  0  0  0  0
  -19.0048    2.9380   24.6094 C   0  0  0  0  0  0  0  0  0  0  0  0
  -18.2458    3.3365   25.8623 C   0  0  0  0  0  0  0  0  0  0  0  0
  -18.4056    2.4294   26.8526 F   0  0  0  0  0  0  0  0  0  0  0  0
  -16.9234    3.4813   25.6329 F   0  0  0  0  0  0  0  0  0  0  0  0
  -18.7060    4.5220   26.3284 F   0  0  0  0  0  0  0  0  0  0  0  0
 12 13  3  0
 13  2  1  0
  2  3  1  0
  3 14  1  0
 14 15  1  0
 15 17  1  0
 17 18  1  0
 18 19  1  0
 19 20  1  0
 20 23  1  0
 23 24  2  0
 23 25  1  0
 23 26  2  0
 20 21  1  0
 21 22  1  0
 17 22  1  0
 15 16  1  0
  2  4  2  0
  4  5  1  0
  5  6  2  0
  3  6  1  0
  6  7  1  0
  7  8  2  0
  8  9  1  0
  9  1  1  0
  1 27  1  0
 27 28  1  0
 28 29  1  0
 29 30  1  0
 30 33  1  0
 33 35  1  0
 35 36  2  0
 36 37  1  0
 37 38  2  0
 38 47  1  0
 47 48  1  0
 48 49  1  0
 48 50  1  0
 48 51  1  0
 38 39  1  0
 36 40  1  0
 39 40  1  0
 40 41  2  0
 41 42  1  0
 42 44  1  0
 44 45  1  0
 42 43  2  0
 35 43  1  0
 30 31  1  0
 31 32  1  0
 27 32  1  0
  9 10  2  0
  5 10  1  0
 10 11  1  0
 33 34  1  0
 44 46  1  0
M  END
> <minimizedAffinity>
-8.53820

> <CNNscore>
0.4236346185

> <CNNaffinity>
7.5853824615

> <CNN_VS>
3.2134306431

> <CNNaffinity_variance>
0.5150393844

$$$$
ziftomenib.sdf


 51 56  0  0  0  0  0  0  0  0999 V2000
  -21.8899   -4.2520   23.8614 C   0  0  0  0  0  0  0  0  0  0  0  0
  -18.6845   -7.6722   19.9223 C   0  0  0  0  0  0  0  0  0  0  0  0
  -18.7862   -8.1954   21.1909 N   0  0  0  0  0  0  0  0  0  0  0  0
  -19.3957   -6.4937   19.9015 C   0  0  0  0  0  0  0  0  0  0  0  0
  -19.9417   -6.2719   21.2005 C   0  0  0  0  0  0  0  0  0  0  0  0
  -19.5459   -7.3572   21.9899 C   0  0  0  0  0  0  0  0  0  0  0  0
  -19.9147   -7.4658   23.3357 C   0  0  0  0  0  0  0  0  0  0  0  0
  -20.6857   -6.4427   23.8852 C   0  0  0  0  0  0  0  0  0  0  0  0
  -21.0944   -5.3289   23.1336 C   0  0  0  0  0  0  0  0  0  0  0  0
  -20.7309   -5.2286   21.7632 C   0  0  0  0  0  0  0  0  0  0  0  0
  -21.1638   -4.0430   20.9408 C   0  0  0  0  0  0  0  0  0  0  0  0
  -17.4064   -8.7967   17.9815 N   0  0  0  0  0  0  0  0  0  0  0  0
  -17.9608   -8.2593   18.8459 C   0  0  0  0  0  0  0  0  0  0  0  0
  -18.1126   -9.4113   21.6430 C   0  0  0  0  0  0  0  0  0  0  0  0
  -18.9877  -10.3383   22.5368 C   0  0  0  0  0  0  0  0  0  0  0  0
  -18.0739  -11.3672   23.2332 C   0  0  0  0  0  0  0  0  0  0  0  0
  -20.0535  -11.0645   21.7966 N   0  0  0  0  0  0  0  0  0  0  0  0
  -19.9663  -10.8845   20.3231 C   0  0  0  0  0  0  0  0  0  0  0  0
  -19.5071  -12.1268   19.5298 C   0  0  0  0  0  0  0  0  0  0  0  0
  -20.4016  -13.2834   19.7868 N   0  0  0  0  0  0  0  0  0  0  0  0
  -21.0193  -13.3051   21.1356 C   0  0  0  0  0  0  0  0  0  0  0  0
  -20.1815  -12.4940   22.1429 C   0  0  0  0  0  0  0  0  0  0  0  0
  -20.0199  -14.7479   19.0498 S   0  0  0  0  0  0  0  0  0  0  0  0
  -18.8817  -15.3118   19.7430 O   0  0  0  0  0  0  0  0  0  0  0  0
  -21.4415  -15.7592   19.4228 C   0  0  0  0  0  0  0  0  0  0  0  0
  -19.9975  -14.5300   17.6190 O   0  0  0  0  0  0  0  0  0  0  0  0
  -21.0340   -3.2565   24.5283 N   0  0  0  0  0  0  0  0  0  0  0  0
  -21.4796   -2.9188   25.8864 C   0  0  0  0  0  0  0  0  0  0  0  0
  -22.7239   -2.0310   25.9303 C   0  0  0  0  0  0  0  0  0  0  0  0
  -22.5416   -0.7694   25.0793 C   0  0  0  0  0  0  0  0  0  0  0  0
  -22.0844   -1.1484   23.6672 C   0  0  0  0  0  0  0  0  0  0  0  0
  -20.8510   -2.0455   23.7202 C   0  0  0  0  0  0  0  0  0  0  0  0
  -23.8224   -0.0578   25.0338 N   0  0  0  0  0  0  0  0  0  0  0  0
  -24.6111   -0.3918   25.5193 H   0  0  0  0  0  0  0  0  0  0  0  0
  -23.8791    1.1119   24.2748 C   0  0  0  0  0  0  0  0  0  0  0  0
  -22.8051    2.0188   24.2279 C   0  0  0  0  0  0  0  0  0  0  0  0
  -21.5030    2.0441   24.8370 C   0  0  0  0  0  0  0  0  0  0  0  0
  -20.7697    3.1639   24.4968 C   0  0  0  0  0  0  0  0  0  0  0  0
  -21.6500    4.1844   23.4392 S   0  0  0  0  0  0  0  0  0  0  0  0
  -22.9966    3.1391   23.4412 C   0  0  0  0  0  0  0  0  0  0  0  0
  -24.0905    3.4381   22.7285 N   0  0  0  0  0  0  0  0  0  0  0  0
  -25.0508    2.5206   22.8220 C   0  0  0  0  0  0  0  0  0  0  0  0
  -24.9831    1.3959   23.5496 N   0  0  0  0  0  0  0  0  0  0  0  0
  -26.2017    2.7967   22.0902 N   0  0  0  0  0  0  0  0  0  0  0  0
  -26.9620    3.9168   22.5995 C   0  0  0  0  0  0  0  0  0  0  0  0
  -26.4733    2.2777   21.2990 H   0  0  0  0  0  0  0  0  0  0  0  0
  -19.3829    3.5420   24.9369 C   0  0  0  0  0  0  0  0  0  0  0  0
  -19.2537    3.6880   26.4424 C   0  0  0  0  0  0  0  0  0  0  0  0
  -19.1883    2.4850   27.0569 F   0  0  0  0  0  0  0  0  0  0  0  0
  -18.1622    4.4005   26.7938 F   0  0  0  0  0  0  0  0  0  0  0  0
  -20.3343    4.3337   26.9423 F   0  0  0  0  0  0  0  0  0  0  0  0
 12 13  3  0
 13  2  1  0
  2  3  1  0
  3 14  1  0
 14 15  1  0
 15 17  1  0
 17 18  1  0
 18 19  1  0
 19 20  1  0
 20 23  1  0
 23 24  2  0
 23 25  1  0
 23 26  2  0
 20 21  1  0
 21 22  1  0
 17 22  1  0
 15 16  1  0
  2  4  2  0
  4  5  1  0
  5  6  2  0
  3  6  1  0
  6  7  1  0
  7  8  2  0
  8  9  1  0
  9  1  1  0
  1 27  1  0
 27 28  1  0
 28 29  1  0
 29 30  1  0
 30 33  1  0
 33 35  1  0
 35 36  2  0
 36 37  1  0
 37 38  2  0
 38 47  1  0
 47 48  1  0
 48 49  1  0
 48 50  1  0
 48 51  1  0
 38 39  1  0
 36 40  1  0
 39 40  1  0
 40 41  2  0
 41 42  1  0
 42 44  1  0
 44 45  1  0
 42 43  2  0
 35 43  1  0
 30 31  1  0
 31 32  1  0
 27 32  1  0
  9 10  2  0
  5 10  1  0
 10 11  1  0
 33 34  1  0
 44 46  1  0
M  END
> <minimizedAffinity>
-8.17809

> <CNNscore>
0.3686045408

> <CNNaffinity>
7.2939338684

> <CNN_VS>
2.6885771751

> <CNNaffinity_variance>
0.4931938946

$$$$
ziftomenib.sdf


 51 56  0  0  0  0  0  0  0  0999 V2000
  -22.3440   -5.1922   23.8842 C   0  0  0  0  0  0  0  0  0  0  0  0
  -18.6398   -7.9591   19.8703 C   0  0  0  0  0  0  0  0  0  0  0  0
  -18.6949   -8.5541   21.1098 N   0  0  0  0  0  0  0  0  0  0  0  0
  -19.5005   -6.8849   19.8871 C   0  0  0  0  0  0  0  0  0  0  0  0
  -20.0954   -6.8023   21.1810 C   0  0  0  0  0  0  0  0  0  0  0  0
  -19.5740   -7.8642   21.9280 C   0  0  0  0  0  0  0  0  0  0  0  0
  -19.9504   -8.0877   23.2575 C   0  0  0  0  0  0  0  0  0  0  0  0
  -20.8605   -7.2038   23.8349 C   0  0  0  0  0  0  0  0  0  0  0  0
  -21.3991   -6.1172   23.1268 C   0  0  0  0  0  0  0  0  0  0  0  0
  -21.0265   -5.9014   21.7722 C   0  0  0  0  0  0  0  0  0  0  0  0
  -21.5972   -4.7434   20.9961 C   0  0  0  0  0  0  0  0  0  0  0  0
  -17.2193   -8.7547   17.8668 N   0  0  0  0  0  0  0  0  0  0  0  0
  -17.8245   -8.3912   18.7859 C   0  0  0  0  0  0  0  0  0  0  0  0
  -17.8746   -9.6919   21.5209 C   0  0  0  0  0  0  0  0  0  0  0  0
  -18.6839  -10.9701   21.8889 C   0  0  0  0  0  0  0  0  0  0  0  0
  -18.1609  -11.5224   23.2305 C   0  0  0  0  0  0  0  0  0  0  0  0
  -18.6153  -12.0469   20.8656 N   0  0  0  0  0  0  0  0  0  0  0  0
  -18.5671  -13.4106   21.4566 C   0  0  0  0  0  0  0  0  0  0  0  0
  -19.8482  -14.2543   21.2811 C   0  0  0  0  0  0  0  0  0  0  0  0
  -20.1969  -14.4011   19.8456 N   0  0  0  0  0  0  0  0  0  0  0  0
  -19.7961  -13.2589   18.9877 C   0  0  0  0  0  0  0  0  0  0  0  0
  -19.6499  -11.9674   19.8154 C   0  0  0  0  0  0  0  0  0  0  0  0
  -21.6030  -15.2438   19.4633 S   0  0  0  0  0  0  0  0  0  0  0  0
  -22.5401  -15.0631   20.5511 O   0  0  0  0  0  0  0  0  0  0  0  0
  -22.2272  -14.3492   18.0516 C   0  0  0  0  0  0  0  0  0  0  0  0
  -21.2181  -16.5644   19.0129 O   0  0  0  0  0  0  0  0  0  0  0  0
  -21.6779   -4.4533   24.9698 N   0  0  0  0  0  0  0  0  0  0  0  0
  -22.6150   -3.8423   25.9216 C   0  0  0  0  0  0  0  0  0  0  0  0
  -23.3334   -2.6056   25.3806 C   0  0  0  0  0  0  0  0  0  0  0  0
  -22.3385   -1.5706   24.8435 C   0  0  0  0  0  0  0  0  0  0  0  0
  -21.3783   -2.2301   23.8488 C   0  0  0  0  0  0  0  0  0  0  0  0
  -20.7211   -3.4614   24.4660 C   0  0  0  0  0  0  0  0  0  0  0  0
  -23.0982   -0.4980   24.1944 N   0  0  0  0  0  0  0  0  0  0  0  0
  -24.0767   -0.4371   24.2841 H   0  0  0  0  0  0  0  0  0  0  0  0
  -22.3788    0.4332   23.4440 C   0  0  0  0  0  0  0  0  0  0  0  0
  -21.7493    1.5401   24.0413 C   0  0  0  0  0  0  0  0  0  0  0  0
  -21.6448    2.0076   25.3968 C   0  0  0  0  0  0  0  0  0  0  0  0
  -20.9099    3.1713   25.5112 C   0  0  0  0  0  0  0  0  0  0  0  0
  -20.3419    3.6993   23.9836 S   0  0  0  0  0  0  0  0  0  0  0  0
  -21.0750    2.3862   23.1809 C   0  0  0  0  0  0  0  0  0  0  0  0
  -20.9642    2.2535   21.8527 N   0  0  0  0  0  0  0  0  0  0  0  0
  -21.5799    1.1739   21.3750 C   0  0  0  0  0  0  0  0  0  0  0  0
  -22.2632    0.2812   22.1065 N   0  0  0  0  0  0  0  0  0  0  0  0
  -21.4819    1.0018   19.9977 N   0  0  0  0  0  0  0  0  0  0  0  0
  -21.7190   -0.3566   19.5613 C   0  0  0  0  0  0  0  0  0  0  0  0
  -21.2707    1.7367   19.3776 H   0  0  0  0  0  0  0  0  0  0  0  0
  -20.5912    3.9571   26.7525 C   0  0  0  0  0  0  0  0  0  0  0  0
  -19.2034    3.6731   27.2986 C   0  0  0  0  0  0  0  0  0  0  0  0
  -19.1054    3.9996   28.6074 F   0  0  0  0  0  0  0  0  0  0  0  0
  -18.8571    2.3756   27.1610 F   0  0  0  0  0  0  0  0  0  0  0  0
  -18.2814    4.4090   26.6332 F   0  0  0  0  0  0  0  0  0  0  0  0
 12 13  3  0
 13  2  1  0
  2  3  1  0
  3 14  1  0
 14 15  1  0
 15 17  1  0
 17 18  1  0
 18 19  1  0
 19 20  1  0
 20 23  1  0
 23 24  2  0
 23 25  1  0
 23 26  2  0
 20 21  1  0
 21 22  1  0
 17 22  1  0
 15 16  1  0
  2  4  2  0
  4  5  1  0
  5  6  2  0
  3  6  1  0
  6  7  1  0
  7  8  2  0
  8  9  1  0
  9  1  1  0
  1 27  1  0
 27 28  1  0
 28 29  1  0
 29 30  1  0
 30 33  1  0
 33 35  1  0
 35 36  2  0
 36 37  1  0
 37 38  2  0
 38 47  1  0
 47 48  1  0
 48 49  1  0
 48 50  1  0
 48 51  1  0
 38 39  1  0
 36 40  1  0
 39 40  1  0
 40 41  2  0
 41 42  1  0
 42 44  1  0
 44 45  1  0
 42 43  2  0
 35 43  1  0
 30 31  1  0
 31 32  1  0
 27 32  1  0
  9 10  2  0
  5 10  1  0
 10 11  1  0
 33 34  1  0
 44 46  1  0
M  END
> <minimizedAffinity>
-8.37510

> <CNNscore>
0.2703231871

> <CNNaffinity>
6.9849228859

> <CNN_VS>
1.8881865740

> <CNNaffinity_variance>
0.8522972465

$$$$
ziftomenib.sdf


 51 56  0  0  0  0  0  0  0  0999 V2000
  -22.0598   -4.5108   23.9101 C   0  0  0  0  0  0  0  0  0  0  0  0
  -18.7247   -7.8497   20.0091 C   0  0  0  0  0  0  0  0  0  0  0  0
  -18.8417   -8.3837   21.2719 N   0  0  0  0  0  0  0  0  0  0  0  0
  -19.4546   -6.6828   19.9829 C   0  0  0  0  0  0  0  0  0  0  0  0
  -20.0286   -6.4794   21.2728 C   0  0  0  0  0  0  0  0  0  0  0  0
  -19.6300   -7.5638   22.0621 C   0  0  0  0  0  0  0  0  0  0  0  0
  -20.0225   -7.6881   23.3998 C   0  0  0  0  0  0  0  0  0  0  0  0
  -20.8204   -6.6817   23.9416 C   0  0  0  0  0  0  0  0  0  0  0  0
  -21.2331   -5.5693   23.1902 C   0  0  0  0  0  0  0  0  0  0  0  0
  -20.8454   -5.4532   21.8276 C   0  0  0  0  0  0  0  0  0  0  0  0
  -21.2820   -4.2689   21.0054 C   0  0  0  0  0  0  0  0  0  0  0  0
  -17.3687   -8.9419   18.1030 N   0  0  0  0  0  0  0  0  0  0  0  0
  -17.9711   -8.4171   18.9426 C   0  0  0  0  0  0  0  0  0  0  0  0
  -18.1569   -9.5917   21.7283 C   0  0  0  0  0  0  0  0  0  0  0  0
  -19.0565  -10.8614   21.7808 C   0  0  0  0  0  0  0  0  0  0  0  0
  -18.7691  -11.6223   23.0912 C   0  0  0  0  0  0  0  0  0  0  0  0
  -18.8647  -11.7883   20.6340 N   0  0  0  0  0  0  0  0  0  0  0  0
  -18.7236  -13.2091   21.0499 C   0  0  0  0  0  0  0  0  0  0  0  0
  -19.9238  -14.1201   20.7136 C   0  0  0  0  0  0  0  0  0  0  0  0
  -20.2109  -14.1070   19.2572 N   0  0  0  0  0  0  0  0  0  0  0  0
  -19.8776  -12.8358   18.5684 C   0  0  0  0  0  0  0  0  0  0  0  0
  -19.8667  -11.6546   19.5578 C   0  0  0  0  0  0  0  0  0  0  0  0
  -21.5288  -15.0001   18.7105 S   0  0  0  0  0  0  0  0  0  0  0  0
  -22.5643  -14.0696   18.3155 O   0  0  0  0  0  0  0  0  0  0  0  0
  -20.8960  -15.7716   17.2315 C   0  0  0  0  0  0  0  0  0  0  0  0
  -21.7857  -16.0460   19.6775 O   0  0  0  0  0  0  0  0  0  0  0  0
  -21.5815   -4.2381   25.2758 N   0  0  0  0  0  0  0  0  0  0  0  0
  -22.6360   -4.3322   26.2939 C   0  0  0  0  0  0  0  0  0  0  0  0
  -23.6120   -3.1551   26.2894 C   0  0  0  0  0  0  0  0  0  0  0  0
  -22.8733   -1.8152   26.3815 C   0  0  0  0  0  0  0  0  0  0  0  0
  -21.7852   -1.7388   25.3060 C   0  0  0  0  0  0  0  0  0  0  0  0
  -20.8704   -2.9584   25.3741 C   0  0  0  0  0  0  0  0  0  0  0  0
  -23.8522   -0.7387   26.2032 N   0  0  0  0  0  0  0  0  0  0  0  0
  -24.5855   -0.8164   25.5509 H   0  0  0  0  0  0  0  0  0  0  0  0
  -23.7030    0.4008   26.9950 C   0  0  0  0  0  0  0  0  0  0  0  0
  -22.9615    1.5143   26.5606 C   0  0  0  0  0  0  0  0  0  0  0  0
  -22.2331    1.8106   25.3571 C   0  0  0  0  0  0  0  0  0  0  0  0
  -21.6456    3.0604   25.3757 C   0  0  0  0  0  0  0  0  0  0  0  0
  -21.9752    3.8793   26.8439 S   0  0  0  0  0  0  0  0  0  0  0  0
  -22.8903    2.5732   27.4462 C   0  0  0  0  0  0  0  0  0  0  0  0
  -23.4534    2.6398   28.6598 N   0  0  0  0  0  0  0  0  0  0  0  0
  -24.1443    1.5488   28.9837 C   0  0  0  0  0  0  0  0  0  0  0  0
  -24.2868    0.4612   28.2119 N   0  0  0  0  0  0  0  0  0  0  0  0
  -24.7471    1.5848   30.2374 N   0  0  0  0  0  0  0  0  0  0  0  0
  -24.5765    2.8426   30.9307 C   0  0  0  0  0  0  0  0  0  0  0  0
  -25.2437    0.8243   30.6173 H   0  0  0  0  0  0  0  0  0  0  0  0
  -20.8071    3.7148   24.3133 C   0  0  0  0  0  0  0  0  0  0  0  0
  -21.6260    4.2499   23.1524 C   0  0  0  0  0  0  0  0  0  0  0  0
  -21.0484    5.3377   22.5935 F   0  0  0  0  0  0  0  0  0  0  0  0
  -21.8054    3.3247   22.1859 F   0  0  0  0  0  0  0  0  0  0  0  0
  -22.8538    4.6263   23.5828 F   0  0  0  0  0  0  0  0  0  0  0  0
 12 13  3  0
 13  2  1  0
  2  3  1  0
  3 14  1  0
 14 15  1  0
 15 17  1  0
 17 18  1  0
 18 19  1  0
 19 20  1  0
 20 23  1  0
 23 24  2  0
 23 25  1  0
 23 26  2  0
 20 21  1  0
 21 22  1  0
 17 22  1  0
 15 16  1  0
  2  4  2  0
  4  5  1  0
  5  6  2  0
  3  6  1  0
  6  7  1  0
  7  8  2  0
  8  9  1  0
  9  1  1  0
  1 27  1  0
 27 28  1  0
 28 29  1  0
 29 30  1  0
 30 33  1  0
 33 35  1  0
 35 36  2  0
 36 37  1  0
 37 38  2  0
 38 47  1  0
 47 48  1  0
 48 49  1  0
 48 50  1  0
 48 51  1  0
 38 39  1  0
 36 40  1  0
 39 40  1  0
 40 41  2  0
 41 42  1  0
 42 44  1  0
 44 45  1  0
 42 43  2  0
 35 43  1  0
 30 31  1  0
 31 32  1  0
 27 32  1  0
  9 10  2  0
  5 10  1  0
 10 11  1  0
 33 34  1  0
 44 46  1  0
M  END
> <minimizedAffinity>
-8.41226

> <CNNscore>
0.1852578819

> <CNNaffinity>
7.0490512848

> <CNN_VS>
1.3058923483

> <CNNaffinity_variance>
0.3930631876

$$$$
ziftomenib.sdf


 51 56  0  0  0  0  0  0  0  0999 V2000
  -23.6671   -1.8927   19.0017 C   0  0  0  0  0  0  0  0  0  0  0  0
  -21.2515   -6.7253   16.1209 C   0  0  0  0  0  0  0  0  0  0  0  0
  -21.2968   -6.8341   17.4919 N   0  0  0  0  0  0  0  0  0  0  0  0
  -21.8206   -5.5187   15.7815 C   0  0  0  0  0  0  0  0  0  0  0  0
  -22.2165   -4.8525   16.9791 C   0  0  0  0  0  0  0  0  0  0  0  0
  -21.8784   -5.7021   18.0382 C   0  0  0  0  0  0  0  0  0  0  0  0
  -22.1330   -5.3591   19.3711 C   0  0  0  0  0  0  0  0  0  0  0  0
  -22.7271   -4.1239   19.6246 C   0  0  0  0  0  0  0  0  0  0  0  0
  -23.0712   -3.2345   18.5936 C   0  0  0  0  0  0  0  0  0  0  0  0
  -22.8252   -3.5918   17.2400 C   0  0  0  0  0  0  0  0  0  0  0  0
  -23.1912   -2.6520   16.1212 C   0  0  0  0  0  0  0  0  0  0  0  0
  -20.2372   -8.4344   14.4731 N   0  0  0  0  0  0  0  0  0  0  0  0
  -20.7018   -7.6962   15.2364 C   0  0  0  0  0  0  0  0  0  0  0  0
  -20.7299   -7.9443   18.2550 C   0  0  0  0  0  0  0  0  0  0  0  0
  -19.4670   -7.5755   19.0875 C   0  0  0  0  0  0  0  0  0  0  0  0
  -18.2250   -8.1859   18.4066 C   0  0  0  0  0  0  0  0  0  0  0  0
  -19.5163   -8.0359   20.5005 N   0  0  0  0  0  0  0  0  0  0  0  0
  -20.6256   -8.9904   20.7644 C   0  0  0  0  0  0  0  0  0  0  0  0
  -20.1969  -10.4530   21.0105 C   0  0  0  0  0  0  0  0  0  0  0  0
  -19.2474  -10.5456   22.1479 N   0  0  0  0  0  0  0  0  0  0  0  0
  -18.3841   -9.3537   22.3368 C   0  0  0  0  0  0  0  0  0  0  0  0
  -18.2390   -8.5598   21.0241 C   0  0  0  0  0  0  0  0  0  0  0  0
  -18.6235  -12.0626   22.5260 S   0  0  0  0  0  0  0  0  0  0  0  0
  -19.4023  -12.6045   23.6187 O   0  0  0  0  0  0  0  0  0  0  0  0
  -18.9954  -13.0170   21.0654 C   0  0  0  0  0  0  0  0  0  0  0  0
  -17.1842  -11.9386   22.6165 O   0  0  0  0  0  0  0  0  0  0  0  0
  -25.1287   -1.9411   19.1741 N   0  0  0  0  0  0  0  0  0  0  0  0
  -25.8624   -1.1712   18.1611 C   0  0  0  0  0  0  0  0  0  0  0  0
  -25.7859    0.3437   18.3548 C   0  0  0  0  0  0  0  0  0  0  0  0
  -26.2101    0.7490   19.7708 C   0  0  0  0  0  0  0  0  0  0  0  0
  -25.4263   -0.0617   20.8076 C   0  0  0  0  0  0  0  0  0  0  0  0
  -25.5452   -1.5572   20.5277 C   0  0  0  0  0  0  0  0  0  0  0  0
  -25.9522    2.1828   19.9341 N   0  0  0  0  0  0  0  0  0  0  0  0
  -25.4994    2.7046   19.2327 H   0  0  0  0  0  0  0  0  0  0  0  0
  -26.3743    2.7785   21.1234 C   0  0  0  0  0  0  0  0  0  0  0  0
  -25.4771    3.0690   22.1670 C   0  0  0  0  0  0  0  0  0  0  0  0
  -24.0608    2.8876   22.3344 C   0  0  0  0  0  0  0  0  0  0  0  0
  -23.6007    3.3324   23.5584 C   0  0  0  0  0  0  0  0  0  0  0  0
  -24.8765    3.9728   24.5054 S   0  0  0  0  0  0  0  0  0  0  0  0
  -26.0295    3.6542   23.2908 C   0  0  0  0  0  0  0  0  0  0  0  0
  -27.3182    3.9680   23.4774 N   0  0  0  0  0  0  0  0  0  0  0  0
  -28.0922    3.6691   22.4361 C   0  0  0  0  0  0  0  0  0  0  0  0
  -27.6747    3.1023   21.2945 N   0  0  0  0  0  0  0  0  0  0  0  0
  -29.4381    3.9856   22.5934 N   0  0  0  0  0  0  0  0  0  0  0  0
  -30.2314    2.9057   23.1381 C   0  0  0  0  0  0  0  0  0  0  0  0
  -29.8155    4.8633   22.3560 H   0  0  0  0  0  0  0  0  0  0  0  0
  -22.1968    3.3051   24.0952 C   0  0  0  0  0  0  0  0  0  0  0  0
  -21.1953    3.9887   23.1817 C   0  0  0  0  0  0  0  0  0  0  0  0
  -20.0092    4.1867   23.8007 F   0  0  0  0  0  0  0  0  0  0  0  0
  -20.9693    3.2825   22.0537 F   0  0  0  0  0  0  0  0  0  0  0  0
  -21.6595    5.2054   22.8092 F   0  0  0  0  0  0  0  0  0  0  0  0
 12 13  3  0
 13  2  1  0
  2  3  1  0
  3 14  1  0
 14 15  1  0
 15 17  1  0
 17 18  1  0
 18 19  1  0
 19 20  1  0
 20 23  1  0
 23 24  2  0
 23 25  1  0
 23 26  2  0
 20 21  1  0
 21 22  1  0
 17 22  1  0
 15 16  1  0
  2  4  2  0
  4  5  1  0
  5  6  2  0
  3  6  1  0
  6  7  1  0
  7  8  2  0
  8  9  1  0
  9  1  1  0
  1 27  1  0
 27 28  1  0
 28 29  1  0
 29 30  1  0
 30 33  1  0
 33 35  1  0
 35 36  2  0
 36 37  1  0
 37 38  2  0
 38 47  1  0
 47 48  1  0
 48 49  1  0
 48 50  1  0
 48 51  1  0
 38 39  1  0
 36 40  1  0
 39 40  1  0
 40 41  2  0
 41 42  1  0
 42 44  1  0
 44 45  1  0
 42 43  2  0
 35 43  1  0
 30 31  1  0
 31 32  1  0
 27 32  1  0
  9 10  2  0
  5 10  1  0
 10 11  1  0
 33 34  1  0
 44 46  1  0
M  END
> <minimizedAffinity>
-8.59995

> <CNNscore>
0.1764714271

> <CNNaffinity>
6.1172442436

> <CNN_VS>
1.0795187950

> <CNNaffinity_variance>
1.7820290327

$$$$
ziftomenib.sdf


 51 56  0  0  0  0  0  0  0  0999 V2000
  -22.8068   -2.2712   17.4373 C   0  0  0  0  0  0  0  0  0  0  0  0
  -21.1880   -8.0998   18.3835 C   0  0  0  0  0  0  0  0  0  0  0  0
  -20.5469   -7.1851   19.1871 N   0  0  0  0  0  0  0  0  0  0  0  0
  -22.0717   -7.4058   17.5882 C   0  0  0  0  0  0  0  0  0  0  0  0
  -21.9640   -6.0174   17.8973 C   0  0  0  0  0  0  0  0  0  0  0  0
  -21.0013   -5.9072   18.9067 C   0  0  0  0  0  0  0  0  0  0  0  0
  -20.6452   -4.6703   19.4566 C   0  0  0  0  0  0  0  0  0  0  0  0
  -21.2710   -3.5297   18.9563 C   0  0  0  0  0  0  0  0  0  0  0  0
  -22.2331   -3.5922   17.9350 C   0  0  0  0  0  0  0  0  0  0  0  0
  -22.6037   -4.8511   17.3888 C   0  0  0  0  0  0  0  0  0  0  0  0
  -23.6366   -4.9374   16.2958 C   0  0  0  0  0  0  0  0  0  0  0  0
  -20.7139  -10.6369   18.4377 N   0  0  0  0  0  0  0  0  0  0  0  0
  -20.9545   -9.5043   18.3874 C   0  0  0  0  0  0  0  0  0  0  0  0
  -19.4801   -7.5139   20.1306 C   0  0  0  0  0  0  0  0  0  0  0  0
  -19.8957   -7.4278   21.6286 C   0  0  0  0  0  0  0  0  0  0  0  0
  -19.2965   -6.1446   22.2393 C   0  0  0  0  0  0  0  0  0  0  0  0
  -19.4675   -8.5946   22.4449 N   0  0  0  0  0  0  0  0  0  0  0  0
  -20.5292   -9.6256   22.5904 C   0  0  0  0  0  0  0  0  0  0  0  0
  -20.2892  -10.9380   21.8135 C   0  0  0  0  0  0  0  0  0  0  0  0
  -19.0019  -11.5630   22.2085 N   0  0  0  0  0  0  0  0  0  0  0  0
  -17.9474  -10.6063   22.6255 C   0  0  0  0  0  0  0  0  0  0  0  0
  -18.1940   -9.2103   22.0215 C   0  0  0  0  0  0  0  0  0  0  0  0
  -18.5428  -12.9771   21.4190 S   0  0  0  0  0  0  0  0  0  0  0  0
  -17.1022  -13.0859   21.5022 O   0  0  0  0  0  0  0  0  0  0  0  0
  -19.2464  -14.2509   22.4510 C   0  0  0  0  0  0  0  0  0  0  0  0
  -19.2281  -13.0141   20.1446 O   0  0  0  0  0  0  0  0  0  0  0  0
  -24.1533   -1.9938   17.9650 N   0  0  0  0  0  0  0  0  0  0  0  0
  -24.6473   -0.6519   17.6296 C   0  0  0  0  0  0  0  0  0  0  0  0
  -23.9889    0.4718   18.4309 C   0  0  0  0  0  0  0  0  0  0  0  0
  -24.0789    0.2110   19.9386 C   0  0  0  0  0  0  0  0  0  0  0  0
  -23.5516   -1.1901   20.2630 C   0  0  0  0  0  0  0  0  0  0  0  0
  -24.2507   -2.2429   19.4078 C   0  0  0  0  0  0  0  0  0  0  0  0
  -23.2871    1.2335   20.6290 N   0  0  0  0  0  0  0  0  0  0  0  0
  -22.3229    1.3359   20.4585 H   0  0  0  0  0  0  0  0  0  0  0  0
  -23.9548    2.0560   21.5375 C   0  0  0  0  0  0  0  0  0  0  0  0
  -23.3674    2.4483   22.7538 C   0  0  0  0  0  0  0  0  0  0  0  0
  -22.0948    2.1858   23.3690 C   0  0  0  0  0  0  0  0  0  0  0  0
  -21.9546    2.7955   24.6003 C   0  0  0  0  0  0  0  0  0  0  0  0
  -23.3569    3.6886   25.0138 S   0  0  0  0  0  0  0  0  0  0  0  0
  -24.1411    3.2597   23.5623 C   0  0  0  0  0  0  0  0  0  0  0  0
  -25.3779    3.7028   23.3010 N   0  0  0  0  0  0  0  0  0  0  0  0
  -25.8501    3.2927   22.1256 C   0  0  0  0  0  0  0  0  0  0  0  0
  -25.1969    2.5072   21.2566 N   0  0  0  0  0  0  0  0  0  0  0  0
  -27.1323    3.7380   21.8189 N   0  0  0  0  0  0  0  0  0  0  0  0
  -28.1610    2.7432   22.0287 C   0  0  0  0  0  0  0  0  0  0  0  0
  -27.3217    4.6463   21.4896 H   0  0  0  0  0  0  0  0  0  0  0  0
  -20.7807    2.7485   25.5382 C   0  0  0  0  0  0  0  0  0  0  0  0
  -19.6050    3.5841   25.0649 C   0  0  0  0  0  0  0  0  0  0  0  0
  -19.9371    4.3595   24.0077 F   0  0  0  0  0  0  0  0  0  0  0  0
  -19.1230    4.3842   26.0395 F   0  0  0  0  0  0  0  0  0  0  0  0
  -18.5914    2.7787   24.6667 F   0  0  0  0  0  0  0  0  0  0  0  0
 12 13  3  0
 13  2  1  0
  2  3  1  0
  3 14  1  0
 14 15  1  0
 15 17  1  0
 17 18  1  0
 18 19  1  0
 19 20  1  0
 20 23  1  0
 23 24  2  0
 23 25  1  0
 23 26  2  0
 20 21  1  0
 21 22  1  0
 17 22  1  0
 15 16  1  0
  2  4  2  0
  4  5  1  0
  5  6  2  0
  3  6  1  0
  6  7  1  0
  7  8  2  0
  8  9  1  0
  9  1  1  0
  1 27  1  0
 27 28  1  0
 28 29  1  0
 29 30  1  0
 30 33  1  0
 33 35  1  0
 35 36  2  0
 36 37  1  0
 37 38  2  0
 38 47  1  0
 47 48  1  0
 48 49  1  0
 48 50  1  0
 48 51  1  0
 38 39  1  0
 36 40  1  0
 39 40  1  0
 40 41  2  0
 41 42  1  0
 42 44  1  0
 44 45  1  0
 42 43  2  0
 35 43  1  0
 30 31  1  0
 31 32  1  0
 27 32  1  0
  9 10  2  0
  5 10  1  0
 10 11  1  0
 33 34  1  0
 44 46  1  0
M  END
> <minimizedAffinity>
-8.30938

> <CNNscore>
0.1684126109

> <CNNaffinity>
6.5238442421

> <CNN_VS>
1.0986976624

> <CNNaffinity_variance>
1.2592447996

$$$$
ziftomenib.sdf


 51 56  0  0  0  0  0  0  0  0999 V2000
  -21.3693    1.2101   24.6406 C   0  0  0  0  0  0  0  0  0  0  0  0
  -23.5311    3.4219   29.9249 C   0  0  0  0  0  0  0  0  0  0  0  0
  -24.4494    2.7276   29.1712 N   0  0  0  0  0  0  0  0  0  0  0  0
  -22.3300    3.3846   29.2532 C   0  0  0  0  0  0  0  0  0  0  0  0
  -22.5132    2.6586   28.0390 C   0  0  0  0  0  0  0  0  0  0  0  0
  -23.8527    2.2549   28.0141 C   0  0  0  0  0  0  0  0  0  0  0  0
  -24.3803    1.5090   26.9538 C   0  0  0  0  0  0  0  0  0  0  0  0
  -23.5301    1.1852   25.8978 C   0  0  0  0  0  0  0  0  0  0  0  0
  -22.1826    1.5805   25.8749 C   0  0  0  0  0  0  0  0  0  0  0  0
  -21.6457    2.3252   26.9601 C   0  0  0  0  0  0  0  0  0  0  0  0
  -20.2018    2.7543   26.9543 C   0  0  0  0  0  0  0  0  0  0  0  0
  -23.9850    4.5327   32.2107 N   0  0  0  0  0  0  0  0  0  0  0  0
  -23.8022    4.0616   31.1676 C   0  0  0  0  0  0  0  0  0  0  0  0
  -25.8654    2.5919   29.5072 C   0  0  0  0  0  0  0  0  0  0  0  0
  -26.1521    1.6737   30.7314 C   0  0  0  0  0  0  0  0  0  0  0  0
  -25.2182    0.4481   30.6650 C   0  0  0  0  0  0  0  0  0  0  0  0
  -27.5596    1.2021   30.8194 N   0  0  0  0  0  0  0  0  0  0  0  0
  -27.8737    0.1200   29.8490 C   0  0  0  0  0  0  0  0  0  0  0  0
  -28.0761   -1.2821   30.4627 C   0  0  0  0  0  0  0  0  0  0  0  0
  -29.1563   -1.2671   31.4808 N   0  0  0  0  0  0  0  0  0  0  0  0
  -29.3113    0.0184   32.2052 C   0  0  0  0  0  0  0  0  0  0  0  0
  -28.0029    0.8320   32.1782 C   0  0  0  0  0  0  0  0  0  0  0  0
  -29.4788   -2.7007   32.3021 S   0  0  0  0  0  0  0  0  0  0  0  0
  -30.2637   -2.3759   33.4735 O   0  0  0  0  0  0  0  0  0  0  0  0
  -30.5356   -3.5781   31.1636 C   0  0  0  0  0  0  0  0  0  0  0  0
  -28.2377   -3.4379   32.4083 O   0  0  0  0  0  0  0  0  0  0  0  0
  -22.1881    1.1109   23.4208 N   0  0  0  0  0  0  0  0  0  0  0  0
  -23.0411   -0.0843   23.3851 C   0  0  0  0  0  0  0  0  0  0  0  0
  -22.2823   -1.3822   23.1058 C   0  0  0  0  0  0  0  0  0  0  0  0
  -21.4331   -1.2716   21.8346 C   0  0  0  0  0  0  0  0  0  0  0  0
  -20.5482   -0.0229   21.8995 C   0  0  0  0  0  0  0  0  0  0  0  0
  -21.3846    1.2182   22.1977 C   0  0  0  0  0  0  0  0  0  0  0  0
  -20.6122   -2.4811   21.7248 N   0  0  0  0  0  0  0  0  0  0  0  0
  -19.9790   -2.6043   20.9810 H   0  0  0  0  0  0  0  0  0  0  0  0
  -20.7641   -3.4510   22.7167 C   0  0  0  0  0  0  0  0  0  0  0  0
  -20.4776   -4.8072   22.4784 C   0  0  0  0  0  0  0  0  0  0  0  0
  -20.0061   -5.5329   21.3304 C   0  0  0  0  0  0  0  0  0  0  0  0
  -19.8697   -6.8869   21.5663 C   0  0  0  0  0  0  0  0  0  0  0  0
  -20.3068   -7.2836   23.1745 S   0  0  0  0  0  0  0  0  0  0  0  0
  -20.6766   -5.6616   23.5466 C   0  0  0  0  0  0  0  0  0  0  0  0
  -21.1082   -5.3259   24.7694 N   0  0  0  0  0  0  0  0  0  0  0  0
  -21.3434   -4.0228   24.9088 C   0  0  0  0  0  0  0  0  0  0  0  0
  -21.1877   -3.0978   23.9501 N   0  0  0  0  0  0  0  0  0  0  0  0
  -21.7897   -3.6370   26.1691 N   0  0  0  0  0  0  0  0  0  0  0  0
  -21.4017   -2.2937   26.5392 C   0  0  0  0  0  0  0  0  0  0  0  0
  -22.3204   -4.2241   26.7547 H   0  0  0  0  0  0  0  0  0  0  0  0
  -19.4135   -7.9596   20.6171 C   0  0  0  0  0  0  0  0  0  0  0  0
  -17.9343   -8.2774   20.7422 C   0  0  0  0  0  0  0  0  0  0  0  0
  -17.3512   -8.4247   19.5308 F   0  0  0  0  0  0  0  0  0  0  0  0
  -17.2631   -7.3220   21.4197 F   0  0  0  0  0  0  0  0  0  0  0  0
  -17.7631   -9.4420   21.4122 F   0  0  0  0  0  0  0  0  0  0  0  0
 12 13  3  0
 13  2  1  0
  2  3  1  0
  3 14  1  0
 14 15  1  0
 15 17  1  0
 17 18  1  0
 18 19  1  0
 19 20  1  0
 20 23  1  0
 23 24  2  0
 23 25  1  0
 23 26  2  0
 20 21  1  0
 21 22  1  0
 17 22  1  0
 15 16  1  0
  2  4  2  0
  4  5  1  0
  5  6  2  0
  3  6  1  0
  6  7  1  0
  7  8  2  0
  8  9  1  0
  9  1  1  0
  1 27  1  0
 27 28  1  0
 28 29  1  0
 29 30  1  0
 30 33  1  0
 33 35  1  0
 35 36  2  0
 36 37  1  0
 37 38  2  0
 38 47  1  0
 47 48  1  0
 48 49  1  0
 48 50  1  0
 48 51  1  0
 38 39  1  0
 36 40  1  0
 39 40  1  0
 40 41  2  0
 41 42  1  0
 42 44  1  0
 44 45  1  0
 42 43  2  0
 35 43  1  0
 30 31  1  0
 31 32  1  0
 27 32  1  0
  9 10  2  0
  5 10  1  0
 10 11  1  0
 33 34  1  0
 44 46  1  0
M  END
> <minimizedAffinity>
-9.02874

> <CNNscore>
0.1615399569

> <CNNaffinity>
7.1518325806

> <CNN_VS>
1.1553066969

> <CNNaffinity_variance>
0.3574416339

$$$$
