NS-C-142.sdf
     RDKit          3D

 26 29  0  0  0  0  0  0  0  0999 V2000
  -20.1232   -4.8127   23.2738 N   0  0  0  0  0  0  0  0  0  0  0  0
  -21.1860   -5.2041   24.1943 C   0  0  0  0  0  0  0  0  0  0  0  0
  -21.4422   -3.9404   25.0075 C   0  0  0  0  0  0  0  0  0  0  0  0
  -21.2331   -2.8251   23.9896 C   0  0  2  0  0  0  0  0  0  0  0  0
  -20.0507   -3.3516   23.1432 C   0  0  0  0  0  0  0  0  0  0  0  0
  -18.2747   -6.2741   22.6989 C   0  0  0  0  0  0  0  0  0  0  0  0
  -17.6434   -7.1725   21.8296 C   0  0  0  0  0  0  0  0  0  0  0  0
  -18.2500   -7.5060   20.6291 C   0  0  0  0  0  0  0  0  0  0  0  0
  -19.4730   -6.9622   20.2833 C   0  0  0  0  0  0  0  0  0  0  0  0
  -20.0908   -6.0688   21.1581 C   0  0  0  0  0  0  0  0  0  0  0  0
  -19.5164   -5.6853   22.3915 C   0  0  0  0  0  0  0  0  0  0  0  0
  -17.6470   -8.3656   19.7983 F   0  0  0  0  0  0  0  0  0  0  0  0
  -21.2740   -5.5654   20.7687 F   0  0  0  0  0  0  0  0  0  0  0  0
  -21.5676   -0.3932   24.1148 C   0  0  0  0  0  0  0  0  0  0  0  0
  -22.1790   -0.3520   23.0543 O   0  0  0  0  0  0  0  0  0  0  0  0
  -21.0084   -1.5389   24.6322 N   0  0  0  0  0  0  0  0  0  0  0  0
  -20.4522   -1.4882   25.4429 H   0  0  0  0  0  0  0  0  0  0  0  0
  -21.4278    0.8191   24.9765 C   0  0  0  0  0  0  0  0  0  0  0  0
  -21.3784    0.7263   26.3212 C   0  0  0  0  0  0  0  0  0  0  0  0
  -21.2174    1.8898   27.0670 N   0  0  0  0  0  0  0  0  0  0  0  0
  -21.0972    3.1551   26.5150 C   0  0  0  0  0  0  0  0  0  0  0  0
  -21.1187    3.2554   25.0984 C   0  0  0  0  0  0  0  0  0  0  0  0
  -21.2700    2.1382   24.3592 C   0  0  0  0  0  0  0  0  0  0  0  0
  -21.1438    2.0850   28.4172 C   0  0  0  0  0  0  0  0  0  0  0  0
  -21.0056    3.3653   28.6801 N   0  0  0  0  0  0  0  0  0  0  0  0
  -20.9754    4.0418   27.4785 N   0  0  0  0  0  0  0  0  0  0  0  0
 14 18  1  0
 14 15  2  0
 18 19  2  0
 19 20  1  0
 20 21  1  0
 21 22  1  0
 22 23  2  0
 23 18  1  0
 20 24  1  0
 24 25  2  0
 25 26  1  0
 26 21  2  0
  6  7  2  0
  7  8  1  0
  8  9  2  0
  9 10  1  0
 10 11  2  0
 11  6  1  0
  8 12  1  0
 11  1  1  0
  1  2  1  0
  2  3  1  0
  3  4  1  0
  4  5  1  0
  5  1  1  0
  4 16  1  1
 14 16  1  0
 10 13  1  0
 16 17  1  0
M  END
>  <minimizedAffinity>  (1) 
-6.69445

>  <CNNscore>  (1) 
0.4038490057

>  <CNNaffinity>  (1) 
5.3695869446

>  <CNN_VS>  (1) 
2.1685023308

>  <CNNaffinity_variance>  (1) 
0.0795883834

$$$$
