ziftomenib.sdf
     RDKit          3D

 51 56  0  0  0  0  0  0  0  0999 V2000
  -22.2620    1.2266   25.9426 C   0  0  0  0  0  0  0  0  0  0  0  0
  -21.2419   -2.5539   21.2355 C   0  0  0  0  0  0  0  0  0  0  0  0
  -21.5566   -3.1792   22.4201 N   0  0  0  0  0  0  0  0  0  0  0  0
  -21.2838   -1.1962   21.4592 C   0  0  0  0  0  0  0  0  0  0  0  0
  -21.6195   -0.9734   22.8275 C   0  0  0  0  0  0  0  0  0  0  0  0
  -21.7881   -2.2357   23.4073 C   0  0  0  0  0  0  0  0  0  0  0  0
  -22.1303   -2.3900   24.7556 C   0  0  0  0  0  0  0  0  0  0  0  0
  -22.2869   -1.2381   25.5247 C   0  0  0  0  0  0  0  0  0  0  0  0
  -22.1147    0.0481   24.9877 C   0  0  0  0  0  0  0  0  0  0  0  0
  -21.7818    0.2023   23.6145 C   0  0  0  0  0  0  0  0  0  0  0  0
  -21.5970    1.5743   23.0207 C   0  0  0  0  0  0  0  0  0  0  0  0
  -20.7176   -3.7159   18.9906 N   0  0  0  0  0  0  0  0  0  0  0  0
  -20.9253   -3.2152   20.0151 C   0  0  0  0  0  0  0  0  0  0  0  0
  -21.5554   -4.6271   22.6196 C   0  0  0  0  0  0  0  0  0  0  0  0
  -20.3431   -5.1641   23.4356 C   0  0  2  0  0  0  0  0  0  0  0  0
  -19.1740   -4.1664   23.3069 C   0  0  0  0  0  0  0  0  0  0  0  0
  -19.8755   -6.5106   23.0121 N   0  0  0  0  0  0  0  0  0  0  0  0
  -20.9767   -7.3845   22.5273 C   0  0  0  0  0  0  0  0  0  0  0  0
  -20.9889   -7.6532   21.0071 C   0  0  0  0  0  0  0  0  0  0  0  0
  -19.7087   -8.2594   20.5629 N   0  0  0  0  0  0  0  0  0  0  0  0
  -18.5207   -7.8549   21.3545 C   0  0  0  0  0  0  0  0  0  0  0  0
  -18.7535   -6.5010   22.0524 C   0  0  0  0  0  0  0  0  0  0  0  0
  -19.5169   -8.5686   18.9195 S   0  0  0  0  0  0  0  0  0  0  0  0
  -20.0285   -9.8958   18.6534 O   0  0  0  0  0  0  0  0  0  0  0  0
  -20.6282   -7.3944   18.1651 C   0  0  0  0  0  0  0  0  0  0  0  0
  -18.1670   -8.1950   18.5540 O   0  0  0  0  0  0  0  0  0  0  0  0
  -21.8753    0.8985   27.3250 N   0  0  0  0  0  0  0  0  0  0  0  0
  -22.8863    0.1121   28.0437 C   0  0  0  0  0  0  0  0  0  0  0  0
  -24.1147    0.9176   28.4685 C   0  0  0  0  0  0  0  0  0  0  0  0
  -23.7176    2.1658   29.2645 C   0  0  0  0  0  0  0  0  0  0  0  0
  -22.6692    2.9717   28.4914 C   0  0  0  0  0  0  0  0  0  0  0  0
  -21.4907    2.0869   28.0950 C   0  0  0  0  0  0  0  0  0  0  0  0
  -24.9232    2.9688   29.4898 N   0  0  0  0  0  0  0  0  0  0  0  0
  -24.9508    3.6675   30.1828 H   0  0  0  0  0  0  0  0  0  0  0  0
  -26.0303    2.7031   28.6827 C   0  0  0  0  0  0  0  0  0  0  0  0
  -27.1671    2.0391   29.1775 C   0  0  0  0  0  0  0  0  0  0  0  0
  -27.5193    1.5036   30.4644 C   0  0  0  0  0  0  0  0  0  0  0  0
  -28.7723    0.9229   30.4829 C   0  0  0  0  0  0  0  0  0  0  0  0
  -29.5269    1.0265   28.9484 S   0  0  0  0  0  0  0  0  0  0  0  0
  -28.1891    1.8360   28.2693 C   0  0  0  0  0  0  0  0  0  0  0  0
  -28.2007    2.2074   26.9824 N   0  0  0  0  0  0  0  0  0  0  0  0
  -27.0912    2.8383   26.6032 C   0  0  0  0  0  0  0  0  0  0  0  0
  -26.0352    3.0945   27.3895 N   0  0  0  0  0  0  0  0  0  0  0  0
  -27.0701    3.2428   25.2720 N   0  0  0  0  0  0  0  0  0  0  0  0
  -27.8188    2.3773   24.3875 C   0  0  0  0  0  0  0  0  0  0  0  0
  -26.5900    4.0441   24.9609 H   0  0  0  0  0  0  0  0  0  0  0  0
  -29.4773    0.2579   31.6321 C   0  0  0  0  0  0  0  0  0  0  0  0
  -30.8915    0.7688   31.8406 C   0  0  0  0  0  0  0  0  0  0  0  0
  -31.3304    0.5250   33.0965 F   0  0  0  0  0  0  0  0  0  0  0  0
  -30.9941    2.0947   31.6083 F   0  0  0  0  0  0  0  0  0  0  0  0
  -31.7424    0.1441   30.9919 F   0  0  0  0  0  0  0  0  0  0  0  0
 12 13  3  0
 13  2  1  0
  2  3  1  0
  3 14  1  0
 14 15  1  0
 15 17  1  0
 17 18  1  0
 18 19  1  0
 19 20  1  0
 20 23  1  0
 23 24  2  0
 23 25  1  0
 23 26  2  0
 20 21  1  0
 21 22  1  0
 17 22  1  0
 15 16  1  6
  2  4  2  0
  4  5  1  0
  5  6  2  0
  3  6  1  0
  6  7  1  0
  7  8  2  0
  8  9  1  0
  9  1  1  0
  1 27  1  0
 27 28  1  0
 28 29  1  0
 29 30  1  0
 30 33  1  0
 33 35  1  0
 35 36  2  0
 36 37  1  0
 37 38  2  0
 38 47  1  0
 47 48  1  0
 48 49  1  0
 48 50  1  0
 48 51  1  0
 38 39  1  0
 36 40  1  0
 39 40  1  0
 40 41  2  0
 41 42  1  0
 42 44  1  0
 44 45  1  0
 42 43  2  0
 35 43  1  0
 30 31  1  0
 31 32  1  0
 27 32  1  0
  9 10  2  0
  5 10  1  0
 10 11  1  0
 33 34  1  0
 44 46  1  0
M  END
>  <minimizedAffinity>  (1) 
-8.42239

>  <CNNscore>  (1) 
0.1234643832

>  <CNNaffinity>  (1) 
6.6911792755

>  <CNN_VS>  (1) 
0.8261223435

>  <CNNaffinity_variance>  (1) 
1.0872448683

$$$$
