NS-C-142.sdf
     RDKit          3D

 26 29  0  0  0  0  0  0  0  0999 V2000
  -21.2736   -0.3111   22.7362 N   0  0  0  0  0  0  0  0  0  0  0  0
  -22.3274   -0.4999   21.7443 C   0  0  0  0  0  0  0  0  0  0  0  0
  -21.9233   -1.7839   21.0288 C   0  0  0  0  0  0  0  0  0  0  0  0
  -21.3077   -2.6224   22.1431 C   0  0  2  0  0  0  0  0  0  0  0  0
  -20.5575   -1.5681   22.9901 C   0  0  0  0  0  0  0  0  0  0  0  0
  -21.4249    0.6665   24.9508 C   0  0  0  0  0  0  0  0  0  0  0  0
  -21.3377    1.7624   25.8185 C   0  0  0  0  0  0  0  0  0  0  0  0
  -21.0099    3.0111   25.3150 C   0  0  0  0  0  0  0  0  0  0  0  0
  -20.7659    3.1842   23.9654 C   0  0  0  0  0  0  0  0  0  0  0  0
  -20.8561    2.0846   23.1124 C   0  0  0  0  0  0  0  0  0  0  0  0
  -21.1943    0.7895   23.5671 C   0  0  0  0  0  0  0  0  0  0  0  0
  -20.9256    4.0587   26.1446 F   0  0  0  0  0  0  0  0  0  0  0  0
  -20.6161    2.3111   21.8100 F   0  0  0  0  0  0  0  0  0  0  0  0
  -20.0877   -4.7368   22.4310 C   0  0  0  0  0  0  0  0  0  0  0  0
  -20.3039   -4.7787   23.6358 O   0  0  0  0  0  0  0  0  0  0  0  0
  -20.4786   -3.6972   21.6188 N   0  0  0  0  0  0  0  0  0  0  0  0
  -20.1953   -3.6805   20.6760 H   0  0  0  0  0  0  0  0  0  0  0  0
  -19.4145   -5.8678   21.7244 C   0  0  0  0  0  0  0  0  0  0  0  0
  -19.8267   -6.2855   20.5098 C   0  0  0  0  0  0  0  0  0  0  0  0
  -19.1392   -7.3247   19.8906 N   0  0  0  0  0  0  0  0  0  0  0  0
  -18.0412   -7.9657   20.4414 C   0  0  0  0  0  0  0  0  0  0  0  0
  -17.5846   -7.5102   21.7069 C   0  0  0  0  0  0  0  0  0  0  0  0
  -18.2359   -6.5017   22.3202 C   0  0  0  0  0  0  0  0  0  0  0  0
  -19.3409   -7.9402   18.6877 C   0  0  0  0  0  0  0  0  0  0  0  0
  -18.4523   -8.8930   18.5149 N   0  0  0  0  0  0  0  0  0  0  0  0
  -17.6304   -8.9091   19.6225 N   0  0  0  0  0  0  0  0  0  0  0  0
 14 18  1  0
 14 15  2  0
 18 19  2  0
 19 20  1  0
 20 21  1  0
 21 22  1  0
 22 23  2  0
 23 18  1  0
 20 24  1  0
 24 25  2  0
 25 26  1  0
 26 21  2  0
  6  7  2  0
  7  8  1  0
  8  9  2  0
  9 10  1  0
 10 11  2  0
 11  6  1  0
  8 12  1  0
 11  1  1  0
  1  2  1  0
  2  3  1  0
  3  4  1  0
  4  5  1  0
  5  1  1  0
  4 16  1  6
 14 16  1  0
 10 13  1  0
 16 17  1  0
M  END
>  <minimizedAffinity>  (1) 
-7.26969

>  <CNNscore>  (1) 
0.5722789764

>  <CNNaffinity>  (1) 
5.4469428062

>  <CNN_VS>  (1) 
3.1171708107

>  <CNNaffinity_variance>  (1) 
0.0338101424

$$$$
