REMARK SMILES Cc1c(COc2cc(F)c(CNCC(=O)CC(=O)O)cc2F)cccc1-c1ccc2c(c1)OCCO2
REMARK SMILES IDX 12 1 13 3 14 4 15 5 16 6 17 7 18 8 19 9 11 11 10 12 8 13
REMARK SMILES IDX 20 14 7 15 21 16 6 17 9 18 22 19 5 20 4 21 3 22 2 23 23 24
REMARK SMILES IDX 26 25 24 26 25 27 1 28 27 29 32 30 28 31 31 32 29 33 33 34
REMARK SMILES IDX 30 35 34 36 36 37 35 38
REMARK H PARENT 12 2 19 10
ROOT
ATOM      1  N   UNL     1      32.327   6.072 136.803  1.00  0.00    -0.306 NA
ATOM      2  H   UNL     1      31.619   6.153 136.073  1.00  0.00     0.123 HD
ENDROOT
BRANCH   1   3
ATOM      3  C   UNL     1      32.031   6.999 137.872  1.00  0.00     0.158 C 
BRANCH   3   4
ATOM      4  C   UNL     1      32.517   6.420 139.197  1.00  0.00     0.157 C 
ATOM      5  O   UNL     1      33.658   6.148 139.372  1.00  0.00    -0.298 OA
BRANCH   4   6
ATOM      6  C   UNL     1      31.478   6.193 140.288  1.00  0.00     0.199 C 
BRANCH   6   7
ATOM      7  C   UNL     1      30.079   6.402 139.708  1.00  0.00     0.310 C 
ATOM      8  O   UNL     1      29.489   5.450 139.126  1.00  0.00    -0.252 OA
BRANCH   7   9
ATOM      9  O   UNL     1      29.526   7.530 139.805  1.00  0.00    -0.481 OA
ATOM     10  H   UNL     1      29.969   8.233 140.238  1.00  0.00     0.296 HD
ENDBRANCH   7   9
ENDBRANCH   6   7
ENDBRANCH   4   6
ENDBRANCH   3   4
ENDBRANCH   1   3
BRANCH   1  11
ATOM     11  C   UNL     1      33.629   6.389 136.254  1.00  0.00     0.120 C 
BRANCH  11  12
ATOM     12  C   UNL     1      33.740   7.852 135.819  1.00  0.00     0.005 A 
ATOM     13  C   UNL     1      33.094   8.263 134.663  1.00  0.00     0.131 A 
ATOM     14  C   UNL     1      34.493   8.758 136.556  1.00  0.00     0.051 A 
ATOM     15  C   UNL     1      33.182   9.577 134.234  1.00  0.00     0.089 A 
ATOM     16  C   UNL     1      34.574  10.071 136.129  1.00  0.00     0.165 A 
ATOM     17  C   UNL     1      33.927  10.476 134.977  1.00  0.00     0.158 A 
ATOM     18  F   UNL     1      32.372   7.354 133.951  1.00  0.00    -0.207 F 
ATOM     19  F   UNL     1      35.293  10.989 136.832  1.00  0.00    -0.203 F 
BRANCH  17  20
ATOM     20  O   UNL     1      34.060  11.807 134.585  1.00  0.00    -0.486 OA
BRANCH  20  21
ATOM     21  C   UNL     1      33.167  12.206 133.585  1.00  0.00     0.265 C 
BRANCH  21  22
ATOM     22  C   UNL     1      33.555  13.645 133.305  1.00  0.00    -0.007 A 
ATOM     23  C   UNL     1      32.708  14.424 132.532  1.00  0.00    -0.037 A 
ATOM     24  C   UNL     1      34.720  14.156 133.832  1.00  0.00     0.007 A 
ATOM     25  C   UNL     1      33.038  15.737 132.272  1.00  0.00    -0.015 A 
ATOM     26  C   UNL     1      35.053  15.474 133.572  1.00  0.00     0.001 A 
ATOM     27  C   UNL     1      34.211  16.255 132.795  1.00  0.00     0.009 A 
ATOM     28  C   UNL     1      31.448  13.787 131.986  1.00  0.00     0.045 C 
BRANCH  25  29
ATOM     29  C   UNL     1      32.160  16.668 131.425  1.00  0.00    -0.014 A 
ATOM     30  C   UNL     1      32.723  17.170 130.263  1.00  0.00     0.059 A 
ATOM     31  C   UNL     1      30.868  17.046 131.815  1.00  0.00     0.013 A 
ATOM     32  C   UNL     1      31.976  18.043 129.455  1.00  0.00     0.161 A 
ATOM     33  C   UNL     1      30.111  17.909 131.010  1.00  0.00     0.051 A 
ATOM     34  O   UNL     1      32.587  18.532 128.280  1.00  0.00    -0.486 OA
ATOM     35  C   UNL     1      30.712  18.401 129.828  1.00  0.00     0.161 A 
ATOM     36  C   UNL     1      31.722  19.077 127.344  1.00  0.00     0.271 C 
ATOM     37  O   UNL     1      29.960  19.302 129.016  1.00  0.00    -0.486 OA
ATOM     38  C   UNL     1      30.727  19.992 128.033  1.00  0.00     0.271 C 
ENDBRANCH  25  29
ENDBRANCH  21  22
ENDBRANCH  20  21
ENDBRANCH  17  20
ENDBRANCH  11  12
ENDBRANCH   1  11
TORSDOF 11
