NS-C-142.sdf
     RDKit          3D

 25 28  0  0  1  0  0  0  0  0999 V2000
  -20.1076   -2.1192   23.5545 C   0  0  0  0  0  0  0  0  0  0  0  0
  -19.7613   -3.5196   23.3098 C   0  0  0  0  0  0  0  0  0  0  0  0
  -21.1728   -1.8658   24.2110 O   0  0  0  0  0  0  0  0  0  0  0  0
  -18.8978   -3.8447   22.2764 C   0  0  0  0  0  0  0  0  0  0  0  0
  -18.5038   -5.0699   21.9487 N   0  0  0  0  0  0  0  0  0  0  0  0
  -18.9985   -6.0979   22.7030 C   0  0  0  0  0  0  0  0  0  0  0  0
  -19.8630   -5.8643   23.7500 C   0  0  0  0  0  0  0  0  0  0  0  0
  -20.2488   -4.5566   24.0563 C   0  0  0  0  0  0  0  0  0  0  0  0
  -17.7028   -5.6284   21.0243 C   0  0  0  0  0  0  0  0  0  0  0  0
  -17.6916   -6.9575   21.1879 N   0  0  0  0  0  0  0  0  0  0  0  0
  -18.4847   -7.2376   22.2145 N   0  0  0  0  0  0  0  0  0  0  0  0
  -20.4859    4.0562   26.0969 C   0  0  0  0  0  0  0  0  0  0  0  0
  -20.8299    4.8070   27.2201 C   0  0  0  0  0  0  0  0  0  0  0  0
  -20.8770    4.2252   28.4734 C   0  0  0  0  0  0  0  0  0  0  0  0
  -20.5726    2.8870   28.5618 C   0  0  0  0  0  0  0  0  0  0  0  0
  -20.2298    2.1314   27.4542 C   0  0  0  0  0  0  0  0  0  0  0  0
  -20.1829    2.7142   26.2010 C   0  0  0  0  0  0  0  0  0  0  0  0
  -21.2132    4.9546   29.5779 F   0  0  0  0  0  0  0  0  0  0  0  0
  -19.8286    1.9339   25.0554 N   0  0  0  0  0  0  0  0  0  0  0  0
  -19.1151    2.5158   23.9281 C   0  0  0  0  0  0  0  0  0  0  0  0
  -18.6561    1.3190   23.1409 C   0  0  0  0  0  0  0  0  0  0  0  0
  -19.7928    0.3144   23.3750 C   0  0  2  0  0  0  0  0  0  0  0  0
  -20.0919    0.5296   24.8198 C   0  0  0  0  0  0  0  0  0  0  0  0
  -19.3194   -1.0367   23.0989 N   0  0  0  0  0  0  0  0  0  0  0  0
  -19.9282    0.7992   27.5523 F   0  0  0  0  0  0  0  0  0  0  0  0
  1  2  1  0
  1  3  2  0
  2  4  2  0
  4  5  1  0
  5  6  1  0
  6  7  1  0
  7  8  2  0
  8  2  1  0
  5  9  1  0
  9 10  2  0
 10 11  1  0
 11  6  2  0
 12 13  2  0
 13 14  1  0
 14 15  2  0
 15 16  1  0
 16 17  2  0
 17 12  1  0
 14 18  1  0
 17 19  1  0
 19 20  1  0
 20 21  1  0
 21 22  1  0
 22 23  1  0
 23 19  1  0
 22 24  1  1
  1 24  1  0
 16 25  1  0
M  END
$$$$
