7uj4
     RDKit          3D

 44 48  0  0  0  0  0  0  0  0999 V2000
  -24.3687    1.0963   23.5208 C   0  0  0  0  0  0  0  0  0  0  0  0
  -23.4200    2.5304   25.2732 N   0  0  0  0  0  0  0  0  0  0  0  0
  -24.0059    1.7215   27.3221 O   0  0  0  0  0  0  0  0  0  0  0  0
  -18.7594  -12.1452   22.4287 S   0  0  1  0  0  6  0  0  0  0  0  0
  -24.6272    1.9840   24.7005 C   0  0  1  0  0  0  0  0  0  0  0  0
  -18.2182    2.9409   22.9849 N   0  0  0  0  0  0  0  0  0  0  0  0
  -20.5172    1.5655   25.4311 O   0  0  0  0  0  0  0  0  0  0  0  0
  -25.5035    3.1704   24.2740 C   0  0  0  0  0  0  0  0  0  0  0  0
  -18.0764    0.6424   22.9872 N   0  0  0  0  0  0  0  0  0  0  0  0
  -17.2875  -12.1833   22.1265 O   0  0  0  0  0  0  0  0  0  0  0  0
  -22.5385    3.3511   24.4539 C   0  0  0  0  0  0  0  0  0  0  0  0
  -19.4070   -0.7478   24.4529 N   0  0  0  0  0  0  0  0  0  0  0  0
  -18.9356  -12.5525   23.8635 O   0  0  0  0  0  0  0  0  0  0  0  0
  -22.7460    4.8222   24.6750 C   0  0  0  0  0  0  0  0  0  0  0  0
  -20.2774   -5.4512   23.3093 N   0  0  0  0  0  0  0  0  0  0  0  0
  -23.1223    2.2572   26.6323 C   0  0  0  0  0  0  0  0  0  0  0  0
  -19.3295  -10.5351   22.2525 N   0  0  0  0  0  0  0  0  0  0  0  0
  -21.8164    2.6098   27.1527 C   0  0  0  0  0  0  0  0  0  0  0  0
  -21.7519    3.3308   28.3499 C   0  0  0  0  0  0  0  0  0  0  0  0
  -20.5711    3.6854   28.9466 C   0  0  0  0  0  0  0  0  0  0  0  0
  -19.3587    3.3325   28.3688 C   0  0  0  0  0  0  0  0  0  0  0  0
  -19.4064    2.6281   27.1988 C   0  0  0  0  0  0  0  0  0  0  0  0
  -20.6175    2.2658   26.5875 C   0  0  0  0  0  0  0  0  0  0  0  0
  -19.5660    1.7122   24.4460 C   0  0  0  0  0  0  0  0  0  0  0  0
  -19.1507    2.9321   23.9421 C   0  0  0  0  0  0  0  0  0  0  0  0
  -17.6754    1.8134   22.5003 C   0  0  0  0  0  0  0  0  0  0  0  0
  -19.0170    0.5189   23.9603 C   0  0  0  0  0  0  0  0  0  0  0  0
  -20.6795   -1.4348   24.5542 C   0  0  0  0  0  0  0  0  0  0  0  0
  -18.8069   -1.9136   25.0541 C   0  0  0  0  0  0  0  0  0  0  0  0
  -19.8863   -2.7245   24.3738 C   0  0  2  0  0  0  0  0  0  0  0  0
  -19.5928   -3.1171   22.9592 C   0  0  0  0  0  0  0  0  0  0  0  0
  -19.1682   -4.5726   22.9347 C   0  0  0  0  0  0  0  0  0  0  0  0
  -20.4152   -3.9146   25.0988 C   0  0  0  0  0  0  0  0  0  0  0  0
  -21.2234   -4.7286   24.0479 C   0  0  0  0  0  0  0  0  0  0  0  0
  -20.6196   -6.2196   22.1915 C   0  0  0  0  0  0  0  0  0  0  0  0
  -20.0485   -7.6051   22.0683 C   0  0  1  0  0  0  0  0  0  0  0  0
  -20.8193   -8.3874   21.0548 C   0  0  0  0  0  0  0  0  0  0  0  0
  -20.0390   -9.3380   20.2229 C   0  0  0  0  0  0  0  0  0  0  0  0
  -18.5921   -7.6001   22.0134 C   0  0  0  0  0  0  0  0  0  0  0  0
  -17.9581   -8.7765   21.3170 C   0  0  0  0  0  0  0  0  0  0  0  0
  -18.9016   -9.9035   21.0464 C   0  0  1  0  0  0  0  0  0  0  0  0
  -19.5646  -13.2690   21.3247 C   0  0  0  0  0  0  0  0  0  0  0  0
  -18.6383  -14.3941   20.9896 C   0  0  0  0  0  0  0  0  0  0  0  0
  -20.5144    4.3864   30.1130 F   0  0  0  0  0  0  0  0  0  0  0  0
  5  1  1  6
  2 11  1  0
  2 16  1  0
  4 10  2  0
  4 13  2  0
  4 42  1  6
  2  5  1  0
  5  8  1  0
  6 26  2  0
  7 24  1  0
  9 27  2  0
 11 14  1  0
 12 28  1  0
 12 29  1  0
 15 35  1  0
  3 16  2  0
 16 18  1  0
  4 17  1  0
 18 19  2  0
 18 23  1  0
 19 20  1  0
 20 21  2  0
 20 44  1  0
 21 22  1  0
 22 23  2  0
  7 23  1  0
 24 25  2  0
 24 27  1  0
  6 25  1  0
  9 26  1  0
 12 27  1  0
 30 28  1  6
 29 30  1  0
 30 31  1  0
 30 33  1  0
 31 32  1  0
 15 32  1  0
 33 34  1  0
 15 34  1  0
 36 35  1  6
 36 37  1  0
 36 39  1  0
 37 38  1  0
 38 41  1  0
 39 40  1  0
 40 41  1  0
 41 17  1  1
 42 43  1  0
M  END
$$$$
