ziftomenib.sdf
     RDKit          3D

 51 56  0  0  0  0  0  0  0  0999 V2000
  -21.9947   -1.8771   25.1643 C   0  0  0  0  0  0  0  0  0  0  0  0
  -20.5245   -5.8603   20.7528 C   0  0  0  0  0  0  0  0  0  0  0  0
  -20.6232   -6.4049   22.0126 N   0  0  0  0  0  0  0  0  0  0  0  0
  -20.8330   -4.5225   20.8539 C   0  0  0  0  0  0  0  0  0  0  0  0
  -21.1163   -4.2256   22.2200 C   0  0  0  0  0  0  0  0  0  0  0  0
  -20.9799   -5.4263   22.9254 C   0  0  0  0  0  0  0  0  0  0  0  0
  -21.1926   -5.5003   24.3069 C   0  0  0  0  0  0  0  0  0  0  0  0
  -21.5341   -4.3272   24.9778 C   0  0  0  0  0  0  0  0  0  0  0  0
  -21.6690   -3.0978   24.3123 C   0  0  0  0  0  0  0  0  0  0  0  0
  -21.4671   -3.0286   22.9070 C   0  0  0  0  0  0  0  0  0  0  0  0
  -21.6115   -1.7193   22.1762 C   0  0  0  0  0  0  0  0  0  0  0  0
  -19.8332   -7.2009   18.6577 N   0  0  0  0  0  0  0  0  0  0  0  0
  -20.1588   -6.5721   19.5752 C   0  0  0  0  0  0  0  0  0  0  0  0
  -20.3076   -7.7933   22.3430 C   0  0  0  0  0  0  0  0  0  0  0  0
  -18.8411   -8.0269   22.8110 C   0  0  2  0  0  0  0  0  0  0  0  0
  -17.9752   -6.8365   22.3508 C   0  0  0  0  0  0  0  0  0  0  0  0
  -18.2360   -9.2868   22.3034 N   0  0  0  0  0  0  0  0  0  0  0  0
  -18.2474  -10.3846   23.3065 C   0  0  0  0  0  0  0  0  0  0  0  0
  -19.2345  -11.5360   23.0174 C   0  0  0  0  0  0  0  0  0  0  0  0
  -18.9680  -12.1456   21.6904 N   0  0  0  0  0  0  0  0  0  0  0  0
  -18.4141  -11.2140   20.6772 C   0  0  0  0  0  0  0  0  0  0  0  0
  -18.7747   -9.7533   21.0103 C   0  0  0  0  0  0  0  0  0  0  0  0
  -19.9876  -13.3829   21.1777 S   0  0  0  0  0  0  0  0  0  0  0  0
  -19.2863  -14.6372   21.3480 O   0  0  0  0  0  0  0  0  0  0  0  0
  -21.3072  -13.3288   22.3771 C   0  0  0  0  0  0  0  0  0  0  0  0
  -20.5406  -12.9977   19.8967 O   0  0  0  0  0  0  0  0  0  0  0  0
  -23.0557   -2.1322   26.1529 N   0  0  0  0  0  0  0  0  0  0  0  0
  -24.3347   -1.4939   25.8154 C   0  0  0  0  0  0  0  0  0  0  0  0
  -24.3517    0.0195   26.0340 C   0  0  0  0  0  0  0  0  0  0  0  0
  -23.9105    0.3845   27.4558 C   0  0  0  0  0  0  0  0  0  0  0  0
  -22.5724   -0.2866   27.7805 C   0  0  0  0  0  0  0  0  0  0  0  0
  -22.6423   -1.7883   27.5182 C   0  0  0  0  0  0  0  0  0  0  0  0
  -23.7902    1.8432   27.5384 N   0  0  0  0  0  0  0  0  0  0  0  0
  -23.6762    2.2993   28.4033 H   0  0  0  0  0  0  0  0  0  0  0  0
  -23.8437    2.5594   26.3418 C   0  0  0  0  0  0  0  0  0  0  0  0
  -22.6861    2.8455   25.5959 C   0  0  0  0  0  0  0  0  0  0  0  0
  -21.2919    2.5451   25.7770 C   0  0  0  0  0  0  0  0  0  0  0  0
  -20.4965    3.0430   24.7638 C   0  0  0  0  0  0  0  0  0  0  0  0
  -21.4313    3.8704   23.5906 S   0  0  0  0  0  0  0  0  0  0  0  0
  -22.8818    3.5670   24.4331 C   0  0  0  0  0  0  0  0  0  0  0  0
  -24.0515    4.0114   23.9553 N   0  0  0  0  0  0  0  0  0  0  0  0
  -25.0933    3.6860   24.7178 C   0  0  0  0  0  0  0  0  0  0  0  0
  -25.0312    2.9911   25.8633 N   0  0  0  0  0  0  0  0  0  0  0  0
  -26.3266    4.1283   24.2491 N   0  0  0  0  0  0  0  0  0  0  0  0
  -26.4144    4.1898   22.8067 C   0  0  0  0  0  0  0  0  0  0  0  0
  -27.0705    4.3764   24.8442 H   0  0  0  0  0  0  0  0  0  0  0  0
  -19.0048    2.9380   24.6094 C   0  0  0  0  0  0  0  0  0  0  0  0
  -18.2458    3.3365   25.8623 C   0  0  0  0  0  0  0  0  0  0  0  0
  -18.4056    2.4294   26.8526 F   0  0  0  0  0  0  0  0  0  0  0  0
  -16.9234    3.4813   25.6329 F   0  0  0  0  0  0  0  0  0  0  0  0
  -18.7060    4.5220   26.3284 F   0  0  0  0  0  0  0  0  0  0  0  0
 12 13  3  0
 13  2  1  0
  2  3  1  0
  3 14  1  0
 14 15  1  0
 15 17  1  0
 17 18  1  0
 18 19  1  0
 19 20  1  0
 20 23  1  0
 23 24  2  0
 23 25  1  0
 23 26  2  0
 20 21  1  0
 21 22  1  0
 17 22  1  0
 15 16  1  6
  2  4  2  0
  4  5  1  0
  5  6  2  0
  3  6  1  0
  6  7  1  0
  7  8  2  0
  8  9  1  0
  9  1  1  0
  1 27  1  0
 27 28  1  0
 28 29  1  0
 29 30  1  0
 30 33  1  0
 33 35  1  0
 35 36  2  0
 36 37  1  0
 37 38  2  0
 38 47  1  0
 47 48  1  0
 48 49  1  0
 48 50  1  0
 48 51  1  0
 38 39  1  0
 36 40  1  0
 39 40  1  0
 40 41  2  0
 41 42  1  0
 42 44  1  0
 44 45  1  0
 42 43  2  0
 35 43  1  0
 30 31  1  0
 31 32  1  0
 27 32  1  0
  9 10  2  0
  5 10  1  0
 10 11  1  0
 33 34  1  0
 44 46  1  0
M  END
>  <minimizedAffinity>  (1) 
-8.53820

>  <CNNscore>  (1) 
0.4236346185

>  <CNNaffinity>  (1) 
7.5853824615

>  <CNN_VS>  (1) 
3.2134306431

>  <CNNaffinity_variance>  (1) 
0.5150393844

$$$$
