ziftomenib.sdf
     RDKit          3D

 51 56  0  0  0  0  0  0  0  0999 V2000
  -22.2362   -3.9323   24.2481 C   0  0  0  0  0  0  0  0  0  0  0  0
  -19.2864   -7.2850   20.0593 C   0  0  0  0  0  0  0  0  0  0  0  0
  -19.2833   -7.8149   21.3291 N   0  0  0  0  0  0  0  0  0  0  0  0
  -20.0153   -6.1178   20.0987 C   0  0  0  0  0  0  0  0  0  0  0  0
  -20.4645   -5.9100   21.4365 C   0  0  0  0  0  0  0  0  0  0  0  0
  -19.9931   -6.9921   22.1879 C   0  0  0  0  0  0  0  0  0  0  0  0
  -20.2569   -7.1121   23.5572 C   0  0  0  0  0  0  0  0  0  0  0  0
  -20.9998   -6.1036   24.1690 C   0  0  0  0  0  0  0  0  0  0  0  0
  -21.4816   -4.9934   23.4565 C   0  0  0  0  0  0  0  0  0  0  0  0
  -21.2249   -4.8817   22.0629 C   0  0  0  0  0  0  0  0  0  0  0  0
  -21.7372   -3.6999   21.2821 C   0  0  0  0  0  0  0  0  0  0  0  0
  -18.1586   -8.2922   17.9669 N   0  0  0  0  0  0  0  0  0  0  0  0
  -18.6375   -7.8561   18.9280 C   0  0  0  0  0  0  0  0  0  0  0  0
  -18.5585   -9.0217   21.7225 C   0  0  0  0  0  0  0  0  0  0  0  0
  -19.3686   -9.9924   22.6312 C   0  0  2  0  0  0  0  0  0  0  0  0
  -18.3825  -10.8945   23.4009 C   0  0  0  0  0  0  0  0  0  0  0  0
  -20.3319  -10.8520   21.8935 N   0  0  0  0  0  0  0  0  0  0  0  0
  -20.2562  -10.6796   20.4184 C   0  0  0  0  0  0  0  0  0  0  0  0
  -19.6426  -11.8654   19.6434 C   0  0  0  0  0  0  0  0  0  0  0  0
  -20.3908  -13.1198   19.9091 N   0  0  0  0  0  0  0  0  0  0  0  0
  -21.0114  -13.2014   21.2543 C   0  0  0  0  0  0  0  0  0  0  0  0
  -20.2867  -12.2824   22.2566 C   0  0  0  0  0  0  0  0  0  0  0  0
  -19.8273  -14.5348   19.1925 S   0  0  0  0  0  0  0  0  0  0  0  0
  -19.3923  -14.2118   17.8507 O   0  0  0  0  0  0  0  0  0  0  0  0
  -18.3769  -14.9156   20.1591 C   0  0  0  0  0  0  0  0  0  0  0  0
  -20.8049  -15.5738   19.4372 O   0  0  0  0  0  0  0  0  0  0  0  0
  -21.7169   -3.7566   25.6148 N   0  0  0  0  0  0  0  0  0  0  0  0
  -22.7710   -3.6683   26.6337 C   0  0  0  0  0  0  0  0  0  0  0  0
  -23.5232   -2.3370   26.6372 C   0  0  0  0  0  0  0  0  0  0  0  0
  -22.5589   -1.1497   26.7360 C   0  0  0  0  0  0  0  0  0  0  0  0
  -21.4747   -1.2609   25.6595 C   0  0  0  0  0  0  0  0  0  0  0  0
  -20.7903   -2.6236   25.7195 C   0  0  0  0  0  0  0  0  0  0  0  0
  -23.3317    0.0842   26.5651 N   0  0  0  0  0  0  0  0  0  0  0  0
  -23.9237    0.2142   25.7892 H   0  0  0  0  0  0  0  0  0  0  0  0
  -23.1946    1.0674   27.5460 C   0  0  0  0  0  0  0  0  0  0  0  0
  -22.2311    2.0870   27.4451 C   0  0  0  0  0  0  0  0  0  0  0  0
  -21.2328    2.4124   26.4631 C   0  0  0  0  0  0  0  0  0  0  0  0
  -20.4942    3.5314   26.7946 C   0  0  0  0  0  0  0  0  0  0  0  0
  -21.0069    4.1929   28.2894 S   0  0  0  0  0  0  0  0  0  0  0  0
  -22.2004    2.9922   28.4893 C   0  0  0  0  0  0  0  0  0  0  0  0
  -22.9902    2.9920   29.5711 N   0  0  0  0  0  0  0  0  0  0  0  0
  -23.8786    2.0003   29.5782 C   0  0  0  0  0  0  0  0  0  0  0  0
  -24.0061    1.0641   28.6262 N   0  0  0  0  0  0  0  0  0  0  0  0
  -24.7196    1.9716   30.6864 N   0  0  0  0  0  0  0  0  0  0  0  0
  -25.7736    0.9856   30.5933 C   0  0  0  0  0  0  0  0  0  0  0  0
  -24.6075    2.5674   31.4621 H   0  0  0  0  0  0  0  0  0  0  0  0
  -19.3692    4.1694   26.0283 C   0  0  0  0  0  0  0  0  0  0  0  0
  -18.0909    3.3508   26.0529 C   0  0  0  0  0  0  0  0  0  0  0  0
  -17.0290    4.0948   26.4375 F   0  0  0  0  0  0  0  0  0  0  0  0
  -18.1822    2.2877   26.8798 F   0  0  0  0  0  0  0  0  0  0  0  0
  -17.8181    2.8756   24.8143 F   0  0  0  0  0  0  0  0  0  0  0  0
 12 13  3  0
 13  2  1  0
  2  3  1  0
  3 14  1  0
 14 15  1  0
 15 17  1  0
 17 18  1  0
 18 19  1  0
 19 20  1  0
 20 23  1  0
 23 24  2  0
 23 25  1  0
 23 26  2  0
 20 21  1  0
 21 22  1  0
 17 22  1  0
 15 16  1  6
  2  4  2  0
  4  5  1  0
  5  6  2  0
  3  6  1  0
  6  7  1  0
  7  8  2  0
  8  9  1  0
  9  1  1  0
  1 27  1  0
 27 28  1  0
 28 29  1  0
 29 30  1  0
 30 33  1  0
 33 35  1  0
 35 36  2  0
 36 37  1  0
 37 38  2  0
 38 47  1  0
 47 48  1  0
 48 49  1  0
 48 50  1  0
 48 51  1  0
 38 39  1  0
 36 40  1  0
 39 40  1  0
 40 41  2  0
 41 42  1  0
 42 44  1  0
 44 45  1  0
 42 43  2  0
 35 43  1  0
 30 31  1  0
 31 32  1  0
 27 32  1  0
  9 10  2  0
  5 10  1  0
 10 11  1  0
 33 34  1  0
 44 46  1  0
M  END
>  <minimizedAffinity>  (1) 
-8.81143

>  <CNNscore>  (1) 
0.5418357253

>  <CNNaffinity>  (1) 
7.5956168175

>  <CNN_VS>  (1) 
4.1155767441

>  <CNNaffinity_variance>  (1) 
0.4794393778

$$$$
