ziftomenib.sdf
     RDKit          3D

 51 56  0  0  0  0  0  0  0  0999 V2000
  -21.3693    1.2101   24.6406 C   0  0  0  0  0  0  0  0  0  0  0  0
  -23.5311    3.4219   29.9249 C   0  0  0  0  0  0  0  0  0  0  0  0
  -24.4494    2.7276   29.1712 N   0  0  0  0  0  0  0  0  0  0  0  0
  -22.3300    3.3846   29.2532 C   0  0  0  0  0  0  0  0  0  0  0  0
  -22.5132    2.6586   28.0390 C   0  0  0  0  0  0  0  0  0  0  0  0
  -23.8527    2.2549   28.0141 C   0  0  0  0  0  0  0  0  0  0  0  0
  -24.3803    1.5090   26.9538 C   0  0  0  0  0  0  0  0  0  0  0  0
  -23.5301    1.1852   25.8978 C   0  0  0  0  0  0  0  0  0  0  0  0
  -22.1826    1.5805   25.8749 C   0  0  0  0  0  0  0  0  0  0  0  0
  -21.6457    2.3252   26.9601 C   0  0  0  0  0  0  0  0  0  0  0  0
  -20.2018    2.7543   26.9543 C   0  0  0  0  0  0  0  0  0  0  0  0
  -23.9850    4.5327   32.2107 N   0  0  0  0  0  0  0  0  0  0  0  0
  -23.8022    4.0616   31.1676 C   0  0  0  0  0  0  0  0  0  0  0  0
  -25.8654    2.5919   29.5072 C   0  0  0  0  0  0  0  0  0  0  0  0
  -26.1521    1.6737   30.7314 C   0  0  2  0  0  0  0  0  0  0  0  0
  -25.2182    0.4481   30.6650 C   0  0  0  0  0  0  0  0  0  0  0  0
  -27.5596    1.2021   30.8194 N   0  0  0  0  0  0  0  0  0  0  0  0
  -27.8737    0.1200   29.8490 C   0  0  0  0  0  0  0  0  0  0  0  0
  -28.0761   -1.2821   30.4627 C   0  0  0  0  0  0  0  0  0  0  0  0
  -29.1563   -1.2671   31.4808 N   0  0  0  0  0  0  0  0  0  0  0  0
  -29.3113    0.0184   32.2052 C   0  0  0  0  0  0  0  0  0  0  0  0
  -28.0029    0.8320   32.1782 C   0  0  0  0  0  0  0  0  0  0  0  0
  -29.4788   -2.7007   32.3021 S   0  0  0  0  0  0  0  0  0  0  0  0
  -30.2637   -2.3759   33.4735 O   0  0  0  0  0  0  0  0  0  0  0  0
  -30.5356   -3.5781   31.1636 C   0  0  0  0  0  0  0  0  0  0  0  0
  -28.2377   -3.4379   32.4083 O   0  0  0  0  0  0  0  0  0  0  0  0
  -22.1881    1.1109   23.4208 N   0  0  0  0  0  0  0  0  0  0  0  0
  -23.0411   -0.0843   23.3851 C   0  0  0  0  0  0  0  0  0  0  0  0
  -22.2823   -1.3822   23.1058 C   0  0  0  0  0  0  0  0  0  0  0  0
  -21.4331   -1.2716   21.8346 C   0  0  0  0  0  0  0  0  0  0  0  0
  -20.5482   -0.0229   21.8995 C   0  0  0  0  0  0  0  0  0  0  0  0
  -21.3846    1.2182   22.1977 C   0  0  0  0  0  0  0  0  0  0  0  0
  -20.6122   -2.4811   21.7248 N   0  0  0  0  0  0  0  0  0  0  0  0
  -19.9790   -2.6043   20.9810 H   0  0  0  0  0  0  0  0  0  0  0  0
  -20.7641   -3.4510   22.7167 C   0  0  0  0  0  0  0  0  0  0  0  0
  -20.4776   -4.8072   22.4784 C   0  0  0  0  0  0  0  0  0  0  0  0
  -20.0061   -5.5329   21.3304 C   0  0  0  0  0  0  0  0  0  0  0  0
  -19.8697   -6.8869   21.5663 C   0  0  0  0  0  0  0  0  0  0  0  0
  -20.3068   -7.2836   23.1745 S   0  0  0  0  0  0  0  0  0  0  0  0
  -20.6766   -5.6616   23.5466 C   0  0  0  0  0  0  0  0  0  0  0  0
  -21.1082   -5.3259   24.7694 N   0  0  0  0  0  0  0  0  0  0  0  0
  -21.3434   -4.0228   24.9088 C   0  0  0  0  0  0  0  0  0  0  0  0
  -21.1877   -3.0978   23.9501 N   0  0  0  0  0  0  0  0  0  0  0  0
  -21.7897   -3.6370   26.1691 N   0  0  0  0  0  0  0  0  0  0  0  0
  -21.4017   -2.2937   26.5392 C   0  0  0  0  0  0  0  0  0  0  0  0
  -22.3204   -4.2241   26.7547 H   0  0  0  0  0  0  0  0  0  0  0  0
  -19.4135   -7.9596   20.6171 C   0  0  0  0  0  0  0  0  0  0  0  0
  -17.9343   -8.2774   20.7422 C   0  0  0  0  0  0  0  0  0  0  0  0
  -17.3512   -8.4247   19.5308 F   0  0  0  0  0  0  0  0  0  0  0  0
  -17.2631   -7.3220   21.4197 F   0  0  0  0  0  0  0  0  0  0  0  0
  -17.7631   -9.4420   21.4122 F   0  0  0  0  0  0  0  0  0  0  0  0
 12 13  3  0
 13  2  1  0
  2  3  1  0
  3 14  1  0
 14 15  1  0
 15 17  1  0
 17 18  1  0
 18 19  1  0
 19 20  1  0
 20 23  1  0
 23 24  2  0
 23 25  1  0
 23 26  2  0
 20 21  1  0
 21 22  1  0
 17 22  1  0
 15 16  1  6
  2  4  2  0
  4  5  1  0
  5  6  2  0
  3  6  1  0
  6  7  1  0
  7  8  2  0
  8  9  1  0
  9  1  1  0
  1 27  1  0
 27 28  1  0
 28 29  1  0
 29 30  1  0
 30 33  1  0
 33 35  1  0
 35 36  2  0
 36 37  1  0
 37 38  2  0
 38 47  1  0
 47 48  1  0
 48 49  1  0
 48 50  1  0
 48 51  1  0
 38 39  1  0
 36 40  1  0
 39 40  1  0
 40 41  2  0
 41 42  1  0
 42 44  1  0
 44 45  1  0
 42 43  2  0
 35 43  1  0
 30 31  1  0
 31 32  1  0
 27 32  1  0
  9 10  2  0
  5 10  1  0
 10 11  1  0
 33 34  1  0
 44 46  1  0
M  END
>  <minimizedAffinity>  (1) 
-9.02874

>  <CNNscore>  (1) 
0.1615399569

>  <CNNaffinity>  (1) 
7.1518325806

>  <CNN_VS>  (1) 
1.1553066969

>  <CNNaffinity_variance>  (1) 
0.3574416339

$$$$
