ziftomenib.sdf
     RDKit          3D

 51 56  0  0  0  0  0  0  0  0999 V2000
  -21.8899   -4.2520   23.8614 C   0  0  0  0  0  0  0  0  0  0  0  0
  -18.6845   -7.6722   19.9223 C   0  0  0  0  0  0  0  0  0  0  0  0
  -18.7862   -8.1954   21.1909 N   0  0  0  0  0  0  0  0  0  0  0  0
  -19.3957   -6.4937   19.9015 C   0  0  0  0  0  0  0  0  0  0  0  0
  -19.9417   -6.2719   21.2005 C   0  0  0  0  0  0  0  0  0  0  0  0
  -19.5459   -7.3572   21.9899 C   0  0  0  0  0  0  0  0  0  0  0  0
  -19.9147   -7.4658   23.3357 C   0  0  0  0  0  0  0  0  0  0  0  0
  -20.6857   -6.4427   23.8852 C   0  0  0  0  0  0  0  0  0  0  0  0
  -21.0944   -5.3289   23.1336 C   0  0  0  0  0  0  0  0  0  0  0  0
  -20.7309   -5.2286   21.7632 C   0  0  0  0  0  0  0  0  0  0  0  0
  -21.1638   -4.0430   20.9408 C   0  0  0  0  0  0  0  0  0  0  0  0
  -17.4064   -8.7967   17.9815 N   0  0  0  0  0  0  0  0  0  0  0  0
  -17.9608   -8.2593   18.8459 C   0  0  0  0  0  0  0  0  0  0  0  0
  -18.1126   -9.4113   21.6430 C   0  0  0  0  0  0  0  0  0  0  0  0
  -18.9877  -10.3383   22.5368 C   0  0  2  0  0  0  0  0  0  0  0  0
  -18.0739  -11.3672   23.2332 C   0  0  0  0  0  0  0  0  0  0  0  0
  -20.0535  -11.0645   21.7966 N   0  0  0  0  0  0  0  0  0  0  0  0
  -19.9663  -10.8845   20.3231 C   0  0  0  0  0  0  0  0  0  0  0  0
  -19.5071  -12.1268   19.5298 C   0  0  0  0  0  0  0  0  0  0  0  0
  -20.4016  -13.2834   19.7868 N   0  0  0  0  0  0  0  0  0  0  0  0
  -21.0193  -13.3051   21.1356 C   0  0  0  0  0  0  0  0  0  0  0  0
  -20.1815  -12.4940   22.1429 C   0  0  0  0  0  0  0  0  0  0  0  0
  -20.0199  -14.7479   19.0498 S   0  0  0  0  0  0  0  0  0  0  0  0
  -18.8817  -15.3118   19.7430 O   0  0  0  0  0  0  0  0  0  0  0  0
  -21.4415  -15.7592   19.4228 C   0  0  0  0  0  0  0  0  0  0  0  0
  -19.9975  -14.5300   17.6190 O   0  0  0  0  0  0  0  0  0  0  0  0
  -21.0340   -3.2565   24.5283 N   0  0  0  0  0  0  0  0  0  0  0  0
  -21.4796   -2.9188   25.8864 C   0  0  0  0  0  0  0  0  0  0  0  0
  -22.7239   -2.0310   25.9303 C   0  0  0  0  0  0  0  0  0  0  0  0
  -22.5416   -0.7694   25.0793 C   0  0  0  0  0  0  0  0  0  0  0  0
  -22.0844   -1.1484   23.6672 C   0  0  0  0  0  0  0  0  0  0  0  0
  -20.8510   -2.0455   23.7202 C   0  0  0  0  0  0  0  0  0  0  0  0
  -23.8224   -0.0578   25.0338 N   0  0  0  0  0  0  0  0  0  0  0  0
  -24.6111   -0.3918   25.5193 H   0  0  0  0  0  0  0  0  0  0  0  0
  -23.8791    1.1119   24.2748 C   0  0  0  0  0  0  0  0  0  0  0  0
  -22.8051    2.0188   24.2279 C   0  0  0  0  0  0  0  0  0  0  0  0
  -21.5030    2.0441   24.8370 C   0  0  0  0  0  0  0  0  0  0  0  0
  -20.7697    3.1639   24.4968 C   0  0  0  0  0  0  0  0  0  0  0  0
  -21.6500    4.1844   23.4392 S   0  0  0  0  0  0  0  0  0  0  0  0
  -22.9966    3.1391   23.4412 C   0  0  0  0  0  0  0  0  0  0  0  0
  -24.0905    3.4381   22.7285 N   0  0  0  0  0  0  0  0  0  0  0  0
  -25.0508    2.5206   22.8220 C   0  0  0  0  0  0  0  0  0  0  0  0
  -24.9831    1.3959   23.5496 N   0  0  0  0  0  0  0  0  0  0  0  0
  -26.2017    2.7967   22.0902 N   0  0  0  0  0  0  0  0  0  0  0  0
  -26.9620    3.9168   22.5995 C   0  0  0  0  0  0  0  0  0  0  0  0
  -26.4733    2.2777   21.2990 H   0  0  0  0  0  0  0  0  0  0  0  0
  -19.3829    3.5420   24.9369 C   0  0  0  0  0  0  0  0  0  0  0  0
  -19.2537    3.6880   26.4424 C   0  0  0  0  0  0  0  0  0  0  0  0
  -19.1883    2.4850   27.0569 F   0  0  0  0  0  0  0  0  0  0  0  0
  -18.1622    4.4005   26.7938 F   0  0  0  0  0  0  0  0  0  0  0  0
  -20.3343    4.3337   26.9423 F   0  0  0  0  0  0  0  0  0  0  0  0
 12 13  3  0
 13  2  1  0
  2  3  1  0
  3 14  1  0
 14 15  1  0
 15 17  1  0
 17 18  1  0
 18 19  1  0
 19 20  1  0
 20 23  1  0
 23 24  2  0
 23 25  1  0
 23 26  2  0
 20 21  1  0
 21 22  1  0
 17 22  1  0
 15 16  1  6
  2  4  2  0
  4  5  1  0
  5  6  2  0
  3  6  1  0
  6  7  1  0
  7  8  2  0
  8  9  1  0
  9  1  1  0
  1 27  1  0
 27 28  1  0
 28 29  1  0
 29 30  1  0
 30 33  1  0
 33 35  1  0
 35 36  2  0
 36 37  1  0
 37 38  2  0
 38 47  1  0
 47 48  1  0
 48 49  1  0
 48 50  1  0
 48 51  1  0
 38 39  1  0
 36 40  1  0
 39 40  1  0
 40 41  2  0
 41 42  1  0
 42 44  1  0
 44 45  1  0
 42 43  2  0
 35 43  1  0
 30 31  1  0
 31 32  1  0
 27 32  1  0
  9 10  2  0
  5 10  1  0
 10 11  1  0
 33 34  1  0
 44 46  1  0
M  END
>  <minimizedAffinity>  (1) 
-8.17809

>  <CNNscore>  (1) 
0.3686045408

>  <CNNaffinity>  (1) 
7.2939338684

>  <CNN_VS>  (1) 
2.6885771751

>  <CNNaffinity_variance>  (1) 
0.4931938946

$$$$
