ziftomenib.sdf
     RDKit          3D

 51 56  0  0  0  0  0  0  0  0999 V2000
  -21.5166   -5.1751   24.9455 C   0  0  0  0  0  0  0  0  0  0  0  0
  -18.8233   -8.0185   20.2391 C   0  0  0  0  0  0  0  0  0  0  0  0
  -19.9043   -8.6823   20.7723 N   0  0  0  0  0  0  0  0  0  0  0  0
  -18.6787   -6.8377   20.9318 C   0  0  0  0  0  0  0  0  0  0  0  0
  -19.6911   -6.7748   21.9348 C   0  0  0  0  0  0  0  0  0  0  0  0
  -20.4485   -7.9447   21.8106 C   0  0  0  0  0  0  0  0  0  0  0  0
  -21.5399   -8.2108   22.6455 C   0  0  0  0  0  0  0  0  0  0  0  0
  -21.8508   -7.2749   23.6306 C   0  0  0  0  0  0  0  0  0  0  0  0
  -21.1101   -6.0937   23.7996 C   0  0  0  0  0  0  0  0  0  0  0  0
  -20.0115   -5.8190   22.9406 C   0  0  0  0  0  0  0  0  0  0  0  0
  -19.2083   -4.5552   23.1048 C   0  0  0  0  0  0  0  0  0  0  0  0
  -17.3554   -8.8162   18.2709 N   0  0  0  0  0  0  0  0  0  0  0  0
  -18.0121   -8.4934   19.1697 C   0  0  0  0  0  0  0  0  0  0  0  0
  -20.3490  -10.0112   20.3568 C   0  0  0  0  0  0  0  0  0  0  0  0
  -19.7624  -11.1803   21.2015 C   0  0  2  0  0  0  0  0  0  0  0  0
  -18.5615  -10.6548   22.0140 C   0  0  0  0  0  0  0  0  0  0  0  0
  -19.3232  -12.3500   20.3953 N   0  0  0  0  0  0  0  0  0  0  0  0
  -19.5446  -13.6492   21.0842 C   0  0  0  0  0  0  0  0  0  0  0  0
  -20.6736  -14.5251   20.4996 C   0  0  0  0  0  0  0  0  0  0  0  0
  -20.4331  -14.8157   19.0638 N   0  0  0  0  0  0  0  0  0  0  0  0
  -19.6994  -13.7561   18.3286 C   0  0  0  0  0  0  0  0  0  0  0  0
  -19.8591  -12.3884   19.0201 C   0  0  0  0  0  0  0  0  0  0  0  0
  -21.5956  -15.7125   18.2406 S   0  0  0  0  0  0  0  0  0  0  0  0
  -21.0160  -16.9969   17.9109 O   0  0  0  0  0  0  0  0  0  0  0  0
  -22.8425  -15.9811   19.4880 C   0  0  0  0  0  0  0  0  0  0  0  0
  -22.1696  -14.8615   17.2201 O   0  0  0  0  0  0  0  0  0  0  0  0
  -22.6413   -4.2892   24.6011 N   0  0  0  0  0  0  0  0  0  0  0  0
  -22.2213   -2.9394   24.2026 C   0  0  0  0  0  0  0  0  0  0  0  0
  -21.7534   -2.0645   25.3662 C   0  0  0  0  0  0  0  0  0  0  0  0
  -22.8025   -2.0095   26.4822 C   0  0  0  0  0  0  0  0  0  0  0  0
  -23.2181   -3.4279   26.8846 C   0  0  0  0  0  0  0  0  0  0  0  0
  -23.6529   -4.2316   25.6624 C   0  0  0  0  0  0  0  0  0  0  0  0
  -22.2203   -1.2984   27.6243 N   0  0  0  0  0  0  0  0  0  0  0  0
  -21.5271   -1.7137   28.1867 H   0  0  0  0  0  0  0  0  0  0  0  0
  -22.6878   -0.0091   27.8825 C   0  0  0  0  0  0  0  0  0  0  0  0
  -22.1053    1.1245   27.2876 C   0  0  0  0  0  0  0  0  0  0  0  0
  -21.0190    1.3105   26.3645 C   0  0  0  0  0  0  0  0  0  0  0  0
  -20.7964    2.6375   26.0532 C   0  0  0  0  0  0  0  0  0  0  0  0
  -21.9004    3.6605   26.8716 S   0  0  0  0  0  0  0  0  0  0  0  0
  -22.6632    2.3407   27.6347 C   0  0  0  0  0  0  0  0  0  0  0  0
  -23.6914    2.5395   28.4697 N   0  0  0  0  0  0  0  0  0  0  0  0
  -24.1874    1.4128   28.9768 C   0  0  0  0  0  0  0  0  0  0  0  0
  -23.7343    0.1775   28.7165 N   0  0  0  0  0  0  0  0  0  0  0  0
  -25.2607    1.5813   29.8463 N   0  0  0  0  0  0  0  0  0  0  0  0
  -24.9832    2.4749   30.9491 C   0  0  0  0  0  0  0  0  0  0  0  0
  -26.1287    1.1336   29.7222 H   0  0  0  0  0  0  0  0  0  0  0  0
  -19.7556    3.2211   25.1389 C   0  0  0  0  0  0  0  0  0  0  0  0
  -18.3956    3.3650   25.7979 C   0  0  0  0  0  0  0  0  0  0  0  0
  -18.1925    4.6217   26.2546 F   0  0  0  0  0  0  0  0  0  0  0  0
  -18.2366    2.5105   26.8308 F   0  0  0  0  0  0  0  0  0  0  0  0
  -17.4139    3.1019   24.9025 F   0  0  0  0  0  0  0  0  0  0  0  0
 12 13  3  0
 13  2  1  0
  2  3  1  0
  3 14  1  0
 14 15  1  0
 15 17  1  0
 17 18  1  0
 18 19  1  0
 19 20  1  0
 20 23  1  0
 23 24  2  0
 23 25  1  0
 23 26  2  0
 20 21  1  0
 21 22  1  0
 17 22  1  0
 15 16  1  6
  2  4  2  0
  4  5  1  0
  5  6  2  0
  3  6  1  0
  6  7  1  0
  7  8  2  0
  8  9  1  0
  9  1  1  0
  1 27  1  0
 27 28  1  0
 28 29  1  0
 29 30  1  0
 30 33  1  0
 33 35  1  0
 35 36  2  0
 36 37  1  0
 37 38  2  0
 38 47  1  0
 47 48  1  0
 48 49  1  0
 48 50  1  0
 48 51  1  0
 38 39  1  0
 36 40  1  0
 39 40  1  0
 40 41  2  0
 41 42  1  0
 42 44  1  0
 44 45  1  0
 42 43  2  0
 35 43  1  0
 30 31  1  0
 31 32  1  0
 27 32  1  0
  9 10  2  0
  5 10  1  0
 10 11  1  0
 33 34  1  0
 44 46  1  0
M  END
>  <minimizedAffinity>  (1) 
-8.31725

>  <CNNscore>  (1) 
0.4469017982

>  <CNNaffinity>  (1) 
7.5335431099

>  <CNN_VS>  (1) 
3.3667540550

>  <CNNaffinity_variance>  (1) 
0.1830401421

$$$$
