MODEL 1
REMARK VINA RESULT:   -10.642      0.000      0.000
REMARK INTER + INTRA:         -19.002
REMARK INTER:                 -17.174
REMARK INTRA:                  -1.828
REMARK UNBOUND:                -1.828
REMARK SMILES Cc1c(COc2cc(F)c(CNCC(=O)CC(=O)O)cc2F)cccc1-c1ccc2c(c1)OCCO2
REMARK SMILES IDX 12 1 13 3 14 4 15 5 16 6 17 7 18 8 19 9 11 11 10 12 8 13
REMARK SMILES IDX 20 14 7 15 21 16 6 17 9 18 22 19 5 20 4 21 3 22 2 23 23 24
REMARK SMILES IDX 26 25 24 26 25 27 1 28 27 29 32 30 28 31 31 32 29 33 33 34
REMARK SMILES IDX 30 35 34 36 36 37 35 38
REMARK H PARENT 12 2 19 10
ROOT
ATOM      1  N   UNL     1      33.786   7.147 138.757  1.00  0.00    -0.306 NA
ATOM      2  H   UNL     1      34.554   6.658 138.297  1.00  0.00     0.123 HD
ENDROOT
BRANCH   1   3
ATOM      3  C   UNL     1      33.308   6.362 139.873  1.00  0.00     0.158 C 
BRANCH   3   4
ATOM      4  C   UNL     1      32.894   7.291 141.009  1.00  0.00     0.157 C 
ATOM      5  O   UNL     1      32.096   6.958 141.821  1.00  0.00    -0.298 OA
BRANCH   4   6
ATOM      6  C   UNL     1      33.535   8.672 141.057  1.00  0.00     0.199 C 
BRANCH   6   7
ATOM      7  C   UNL     1      32.501   9.727 140.664  1.00  0.00     0.310 C 
ATOM      8  O   UNL     1      32.721  10.946 140.904  1.00  0.00    -0.252 OA
BRANCH   7   9
ATOM      9  O   UNL     1      31.426   9.370 140.111  1.00  0.00    -0.481 OA
ATOM     10  H   UNL     1      30.887   8.718 140.513  1.00  0.00     0.296 HD
ENDBRANCH   7   9
ENDBRANCH   6   7
ENDBRANCH   4   6
ENDBRANCH   3   4
ENDBRANCH   1   3
BRANCH   1  11
ATOM     11  C   UNL     1      32.700   7.338 137.818  1.00  0.00     0.120 C 
BRANCH  11  12
ATOM     12  C   UNL     1      33.028   8.381 136.748  1.00  0.00     0.005 A 
ATOM     13  C   UNL     1      32.616   8.161 135.442  1.00  0.00     0.131 A 
ATOM     14  C   UNL     1      33.748   9.527 137.068  1.00  0.00     0.051 A 
ATOM     15  C   UNL     1      32.906   9.079 134.446  1.00  0.00     0.089 A 
ATOM     16  C   UNL     1      34.030  10.444 136.072  1.00  0.00     0.165 A 
ATOM     17  C   UNL     1      33.615  10.221 134.773  1.00  0.00     0.158 A 
ATOM     18  F   UNL     1      31.923   7.026 135.151  1.00  0.00    -0.207 F 
ATOM     19  F   UNL     1      34.722  11.583 136.351  1.00  0.00    -0.203 F 
BRANCH  17  20
ATOM     20  O   UNL     1      33.945  11.171 133.808  1.00  0.00    -0.486 OA
BRANCH  20  21
ATOM     21  C   UNL     1      32.850  11.867 133.285  1.00  0.00     0.265 C 
BRANCH  21  22
ATOM     22  C   UNL     1      33.360  13.287 133.135  1.00  0.00    -0.007 A 
ATOM     23  C   UNL     1      32.640  14.173 132.348  1.00  0.00    -0.037 A 
ATOM     24  C   UNL     1      34.507  13.677 133.790  1.00  0.00     0.007 A 
ATOM     25  C   UNL     1      33.082  15.471 132.205  1.00  0.00    -0.015 A 
ATOM     26  C   UNL     1      34.952  14.979 133.647  1.00  0.00     0.001 A 
ATOM     27  C   UNL     1      34.237  15.867 132.857  1.00  0.00     0.009 A 
ATOM     28  C   UNL     1      31.392  13.666 131.658  1.00  0.00     0.045 C 
BRANCH  25  29
ATOM     29  C   UNL     1      32.348  16.514 131.352  1.00  0.00    -0.014 A 
ATOM     30  C   UNL     1      32.890  16.796 130.108  1.00  0.00     0.059 A 
ATOM     31  C   UNL     1      31.213  17.198 131.809  1.00  0.00     0.013 A 
ATOM     32  C   UNL     1      32.275  17.757 129.289  1.00  0.00     0.161 A 
ATOM     33  C   UNL     1      30.586  18.151 130.994  1.00  0.00     0.051 A 
ATOM     34  O   UNL     1      32.860  18.015 128.030  1.00  0.00    -0.486 OA
ATOM     35  C   UNL     1      31.161  18.414 129.729  1.00  0.00     0.161 A 
ATOM     36  C   UNL     1      32.046  18.674 127.121  1.00  0.00     0.271 C 
ATOM     37  O   UNL     1      30.547  19.402 128.903  1.00  0.00    -0.486 OA
ATOM     38  C   UNL     1      31.346  19.834 127.804  1.00  0.00     0.271 C 
ENDBRANCH  25  29
ENDBRANCH  21  22
ENDBRANCH  20  21
ENDBRANCH  17  20
ENDBRANCH  11  12
ENDBRANCH   1  11
TORSDOF 11
ENDMDL
MODEL 2
REMARK VINA RESULT:   -10.443      1.600      2.350
REMARK INTER + INTRA:         -18.681
REMARK INTER:                 -16.978
REMARK INTRA:                  -1.703
REMARK UNBOUND:                -1.828
REMARK SMILES Cc1c(COc2cc(F)c(CNCC(=O)CC(=O)O)cc2F)cccc1-c1ccc2c(c1)OCCO2
REMARK SMILES IDX 12 1 13 3 14 4 15 5 16 6 17 7 18 8 19 9 11 11 10 12 8 13
REMARK SMILES IDX 20 14 7 15 21 16 6 17 9 18 22 19 5 20 4 21 3 22 2 23 23 24
REMARK SMILES IDX 26 25 24 26 25 27 1 28 27 29 32 30 28 31 31 32 29 33 33 34
REMARK SMILES IDX 30 35 34 36 36 37 35 38
REMARK H PARENT 12 2 19 10
ROOT
ATOM      1  N   UNL     1      33.568   6.678 138.528  1.00  0.00    -0.306 NA
ATOM      2  H   UNL     1      33.405   6.351 137.575  1.00  0.00     0.123 HD
ENDROOT
BRANCH   1   3
ATOM      3  C   UNL     1      32.840   5.845 139.459  1.00  0.00     0.158 C 
BRANCH   3   4
ATOM      4  C   UNL     1      31.606   5.271 138.770  1.00  0.00     0.157 C 
ATOM      5  O   UNL     1      31.699   4.475 137.896  1.00  0.00    -0.298 OA
BRANCH   4   6
ATOM      6  C   UNL     1      30.244   5.766 139.240  1.00  0.00     0.199 C 
BRANCH   6   7
ATOM      7  C   UNL     1      29.745   6.857 138.293  1.00  0.00     0.310 C 
ATOM      8  O   UNL     1      29.274   7.931 138.759  1.00  0.00    -0.252 OA
BRANCH   7   9
ATOM      9  O   UNL     1      29.798   6.673 137.047  1.00  0.00    -0.481 OA
ATOM     10  H   UNL     1      30.613   6.453 136.640  1.00  0.00     0.296 HD
ENDBRANCH   7   9
ENDBRANCH   6   7
ENDBRANCH   4   6
ENDBRANCH   3   4
ENDBRANCH   1   3
BRANCH   1  11
ATOM     11  C   UNL     1      33.105   8.044 138.659  1.00  0.00     0.120 C 
BRANCH  11  12
ATOM     12  C   UNL     1      33.339   8.865 137.389  1.00  0.00     0.005 A 
ATOM     13  C   UNL     1      33.851  10.149 137.501  1.00  0.00     0.131 A 
ATOM     14  C   UNL     1      33.026   8.346 136.138  1.00  0.00     0.051 A 
ATOM     15  C   UNL     1      34.065  10.924 136.373  1.00  0.00     0.089 A 
ATOM     16  C   UNL     1      33.247   9.120 135.014  1.00  0.00     0.165 A 
ATOM     17  C   UNL     1      33.758  10.398 135.130  1.00  0.00     0.158 A 
ATOM     18  F   UNL     1      34.138  10.640 138.738  1.00  0.00    -0.207 F 
ATOM     19  F   UNL     1      32.963   8.640 133.771  1.00  0.00    -0.203 F 
BRANCH  17  20
ATOM     20  O   UNL     1      33.942  11.139 133.963  1.00  0.00    -0.486 OA
BRANCH  20  21
ATOM     21  C   UNL     1      32.819  11.870 133.561  1.00  0.00     0.265 C 
BRANCH  21  22
ATOM     22  C   UNL     1      33.357  13.270 133.340  1.00  0.00    -0.007 A 
ATOM     23  C   UNL     1      32.636  14.141 132.537  1.00  0.00    -0.037 A 
ATOM     24  C   UNL     1      34.531  13.657 133.946  1.00  0.00     0.007 A 
ATOM     25  C   UNL     1      33.104  15.421 132.329  1.00  0.00    -0.015 A 
ATOM     26  C   UNL     1      35.003  14.942 133.738  1.00  0.00     0.001 A 
ATOM     27  C   UNL     1      34.287  15.814 132.933  1.00  0.00     0.009 A 
ATOM     28  C   UNL     1      31.357  13.637 131.903  1.00  0.00     0.045 C 
BRANCH  25  29
ATOM     29  C   UNL     1      32.371  16.447 131.455  1.00  0.00    -0.014 A 
ATOM     30  C   UNL     1      32.926  16.721 130.216  1.00  0.00     0.059 A 
ATOM     31  C   UNL     1      31.223  17.124 131.890  1.00  0.00     0.013 A 
ATOM     32  C   UNL     1      32.312  17.666 129.378  1.00  0.00     0.161 A 
ATOM     33  C   UNL     1      30.597  18.061 131.056  1.00  0.00     0.051 A 
ATOM     34  O   UNL     1      32.911  17.917 128.124  1.00  0.00    -0.486 OA
ATOM     35  C   UNL     1      31.186  18.316 129.796  1.00  0.00     0.161 A 
ATOM     36  C   UNL     1      32.103  18.557 127.198  1.00  0.00     0.271 C 
ATOM     37  O   UNL     1      30.572  19.289 128.951  1.00  0.00    -0.486 OA
ATOM     38  C   UNL     1      31.381  19.717 127.859  1.00  0.00     0.271 C 
ENDBRANCH  25  29
ENDBRANCH  21  22
ENDBRANCH  20  21
ENDBRANCH  17  20
ENDBRANCH  11  12
ENDBRANCH   1  11
TORSDOF 11
ENDMDL
MODEL 3
REMARK VINA RESULT:   -10.375      1.180      1.568
REMARK INTER + INTRA:         -18.571
REMARK INTER:                 -16.802
REMARK INTRA:                  -1.770
REMARK UNBOUND:                -1.828
REMARK SMILES Cc1c(COc2cc(F)c(CNCC(=O)CC(=O)O)cc2F)cccc1-c1ccc2c(c1)OCCO2
REMARK SMILES IDX 12 1 13 3 14 4 15 5 16 6 17 7 18 8 19 9 11 11 10 12 8 13
REMARK SMILES IDX 20 14 7 15 21 16 6 17 9 18 22 19 5 20 4 21 3 22 2 23 23 24
REMARK SMILES IDX 26 25 24 26 25 27 1 28 27 29 32 30 28 31 31 32 29 33 33 34
REMARK SMILES IDX 30 35 34 36 36 37 35 38
REMARK H PARENT 12 2 19 10
ROOT
ATOM      1  N   UNL     1      33.406   7.672 138.891  1.00  0.00    -0.306 NA
ATOM      2  H   UNL     1      34.420   7.572 138.839  1.00  0.00     0.123 HD
ENDROOT
BRANCH   1   3
ATOM      3  C   UNL     1      32.880   6.772 139.893  1.00  0.00     0.158 C 
BRANCH   3   4
ATOM      4  C   UNL     1      31.585   7.344 140.462  1.00  0.00     0.157 C 
ATOM      5  O   UNL     1      31.568   8.378 141.043  1.00  0.00    -0.298 OA
BRANCH   4   6
ATOM      6  C   UNL     1      30.311   6.532 140.264  1.00  0.00     0.199 C 
BRANCH   6   7
ATOM      7  C   UNL     1      29.479   7.158 139.144  1.00  0.00     0.310 C 
ATOM      8  O   UNL     1      28.708   6.436 138.453  1.00  0.00    -0.252 OA
BRANCH   7   9
ATOM      9  O   UNL     1      29.577   8.392 138.910  1.00  0.00    -0.481 OA
ATOM     10  H   UNL     1      29.228   8.747 138.116  1.00  0.00     0.296 HD
ENDBRANCH   7   9
ENDBRANCH   6   7
ENDBRANCH   4   6
ENDBRANCH   3   4
ENDBRANCH   1   3
BRANCH   1  11
ATOM     11  C   UNL     1      32.819   7.341 137.609  1.00  0.00     0.120 C 
BRANCH  11  12
ATOM     12  C   UNL     1      33.102   8.403 136.545  1.00  0.00     0.005 A 
ATOM     13  C   UNL     1      32.693   8.176 135.239  1.00  0.00     0.131 A 
ATOM     14  C   UNL     1      33.777   9.574 136.870  1.00  0.00     0.051 A 
ATOM     15  C   UNL     1      32.942   9.111 134.249  1.00  0.00     0.089 A 
ATOM     16  C   UNL     1      34.019  10.509 135.880  1.00  0.00     0.165 A 
ATOM     17  C   UNL     1      33.608  10.278 134.580  1.00  0.00     0.158 A 
ATOM     18  F   UNL     1      32.044   7.016 134.943  1.00  0.00    -0.207 F 
ATOM     19  F   UNL     1      34.668  11.672 136.163  1.00  0.00    -0.203 F 
BRANCH  17  20
ATOM     20  O   UNL     1      33.896  11.247 133.621  1.00  0.00    -0.486 OA
BRANCH  20  21
ATOM     21  C   UNL     1      32.784  11.971 133.179  1.00  0.00     0.265 C 
BRANCH  21  22
ATOM     22  C   UNL     1      33.301  13.391 133.054  1.00  0.00    -0.007 A 
ATOM     23  C   UNL     1      32.604  14.284 132.255  1.00  0.00    -0.037 A 
ATOM     24  C   UNL     1      34.431  13.772 133.742  1.00  0.00     0.007 A 
ATOM     25  C   UNL     1      33.052  15.582 132.134  1.00  0.00    -0.015 A 
ATOM     26  C   UNL     1      34.883  15.075 133.621  1.00  0.00     0.001 A 
ATOM     27  C   UNL     1      34.192  15.970 132.819  1.00  0.00     0.009 A 
ATOM     28  C   UNL     1      31.373  13.786 131.529  1.00  0.00     0.045 C 
BRANCH  25  29
ATOM     29  C   UNL     1      32.344  16.634 131.270  1.00  0.00    -0.014 A 
ATOM     30  C   UNL     1      32.904  16.905 130.032  1.00  0.00     0.059 A 
ATOM     31  C   UNL     1      31.214  17.336 131.713  1.00  0.00     0.013 A 
ATOM     32  C   UNL     1      32.313  17.873 129.203  1.00  0.00     0.161 A 
ATOM     33  C   UNL     1      30.611  18.296 130.888  1.00  0.00     0.051 A 
ATOM     34  O   UNL     1      32.915  18.119 127.951  1.00  0.00    -0.486 OA
ATOM     35  C   UNL     1      31.204  18.547 129.629  1.00  0.00     0.161 A 
ATOM     36  C   UNL     1      32.122  18.788 127.032  1.00  0.00     0.271 C 
ATOM     37  O   UNL     1      30.614  19.543 128.794  1.00  0.00    -0.486 OA
ATOM     38  C   UNL     1      31.431  19.960 127.704  1.00  0.00     0.271 C 
ENDBRANCH  25  29
ENDBRANCH  21  22
ENDBRANCH  20  21
ENDBRANCH  17  20
ENDBRANCH  11  12
ENDBRANCH   1  11
TORSDOF 11
ENDMDL
MODEL 4
REMARK VINA RESULT:    -9.966      2.881     12.266
REMARK INTER + INTRA:         -17.911
REMARK INTER:                 -16.968
REMARK INTRA:                  -0.942
REMARK UNBOUND:                -1.828
REMARK SMILES Cc1c(COc2cc(F)c(CNCC(=O)CC(=O)O)cc2F)cccc1-c1ccc2c(c1)OCCO2
REMARK SMILES IDX 12 1 13 3 14 4 15 5 16 6 17 7 18 8 19 9 11 11 10 12 8 13
REMARK SMILES IDX 20 14 7 15 21 16 6 17 9 18 22 19 5 20 4 21 3 22 2 23 23 24
REMARK SMILES IDX 26 25 24 26 25 27 1 28 27 29 32 30 28 31 31 32 29 33 33 34
REMARK SMILES IDX 30 35 34 36 36 37 35 38
REMARK H PARENT 12 2 19 10
ROOT
ATOM      1  N   UNL     1      34.314  16.983 131.085  1.00  0.00    -0.306 NA
ATOM      2  H   UNL     1      34.492  17.984 131.005  1.00  0.00     0.123 HD
ENDROOT
BRANCH   1   3
ATOM      3  C   UNL     1      33.602  16.521 129.914  1.00  0.00     0.158 C 
BRANCH   3   4
ATOM      4  C   UNL     1      32.606  17.587 129.471  1.00  0.00     0.157 C 
ATOM      5  O   UNL     1      32.222  18.424 130.218  1.00  0.00    -0.298 OA
BRANCH   4   6
ATOM      6  C   UNL     1      32.113  17.533 128.030  1.00  0.00     0.199 C 
BRANCH   6   7
ATOM      7  C   UNL     1      32.186  18.931 127.415  1.00  0.00     0.310 C 
ATOM      8  O   UNL     1      32.708  19.093 126.278  1.00  0.00    -0.252 OA
BRANCH   7   9
ATOM      9  O   UNL     1      31.732  19.917 128.055  1.00  0.00    -0.481 OA
ATOM     10  H   UNL     1      32.103  20.768 127.927  1.00  0.00     0.296 HD
ENDBRANCH   7   9
ENDBRANCH   6   7
ENDBRANCH   4   6
ENDBRANCH   3   4
ENDBRANCH   1   3
BRANCH   1  11
ATOM     11  C   UNL     1      33.506  16.724 132.258  1.00  0.00     0.120 C 
BRANCH  11  12
ATOM     12  C   UNL     1      33.579  15.263 132.708  1.00  0.00     0.005 A 
ATOM     13  C   UNL     1      34.614  14.865 133.540  1.00  0.00     0.131 A 
ATOM     14  C   UNL     1      32.635  14.339 132.278  1.00  0.00     0.051 A 
ATOM     15  C   UNL     1      34.717  13.548 133.958  1.00  0.00     0.089 A 
ATOM     16  C   UNL     1      32.737  13.026 132.702  1.00  0.00     0.165 A 
ATOM     17  C   UNL     1      33.770  12.634 133.532  1.00  0.00     0.158 A 
ATOM     18  F   UNL     1      35.534  15.787 133.939  1.00  0.00    -0.207 F 
ATOM     19  F   UNL     1      31.824  12.095 132.310  1.00  0.00    -0.203 F 
BRANCH  17  20
ATOM     20  O   UNL     1      33.832  11.294 133.912  1.00  0.00    -0.486 OA
BRANCH  20  21
ATOM     21  C   UNL     1      33.923  11.089 135.292  1.00  0.00     0.265 C 
BRANCH  21  22
ATOM     22  C   UNL     1      33.365   9.693 135.490  1.00  0.00    -0.007 A 
ATOM     23  C   UNL     1      33.262   9.194 136.779  1.00  0.00    -0.037 A 
ATOM     24  C   UNL     1      32.957   8.957 134.400  1.00  0.00     0.007 A 
ATOM     25  C   UNL     1      32.750   7.930 136.981  1.00  0.00    -0.015 A 
ATOM     26  C   UNL     1      32.443   7.688 134.601  1.00  0.00     0.001 A 
ATOM     27  C   UNL     1      32.343   7.183 135.888  1.00  0.00     0.009 A 
ATOM     28  C   UNL     1      33.736  10.063 137.924  1.00  0.00     0.045 C 
BRANCH  25  29
ATOM     29  C   UNL     1      32.603   7.300 138.373  1.00  0.00    -0.014 A 
ATOM     30  C   UNL     1      31.409   7.526 139.037  1.00  0.00     0.059 A 
ATOM     31  C   UNL     1      33.634   6.571 138.982  1.00  0.00     0.013 A 
ATOM     32  C   UNL     1      31.222   6.992 140.322  1.00  0.00     0.161 A 
ATOM     33  C   UNL     1      33.452   6.026 140.261  1.00  0.00     0.051 A 
ATOM     34  O   UNL     1      29.990   7.246 140.964  1.00  0.00    -0.486 OA
ATOM     35  C   UNL     1      32.220   6.270 140.911  1.00  0.00     0.161 A 
ATOM     36  C   UNL     1      29.701   6.423 142.041  1.00  0.00     0.271 C 
ATOM     37  O   UNL     1      32.037   5.743 142.224  1.00  0.00    -0.486 OA
ATOM     38  C   UNL     1      30.924   6.287 142.929  1.00  0.00     0.271 C 
ENDBRANCH  25  29
ENDBRANCH  21  22
ENDBRANCH  20  21
ENDBRANCH  17  20
ENDBRANCH  11  12
ENDBRANCH   1  11
TORSDOF 11
ENDMDL
MODEL 5
REMARK VINA RESULT:    -9.762      1.271      2.095
REMARK INTER + INTRA:         -17.582
REMARK INTER:                 -16.447
REMARK INTRA:                  -1.134
REMARK UNBOUND:                -1.828
REMARK SMILES Cc1c(COc2cc(F)c(CNCC(=O)CC(=O)O)cc2F)cccc1-c1ccc2c(c1)OCCO2
REMARK SMILES IDX 12 1 13 3 14 4 15 5 16 6 17 7 18 8 19 9 11 11 10 12 8 13
REMARK SMILES IDX 20 14 7 15 21 16 6 17 9 18 22 19 5 20 4 21 3 22 2 23 23 24
REMARK SMILES IDX 26 25 24 26 25 27 1 28 27 29 32 30 28 31 31 32 29 33 33 34
REMARK SMILES IDX 30 35 34 36 36 37 35 38
REMARK H PARENT 12 2 19 10
ROOT
ATOM      1  N   UNL     1      33.778   7.858 139.448  1.00  0.00    -0.306 NA
ATOM      2  H   UNL     1      34.176   7.394 138.632  1.00  0.00     0.123 HD
ENDROOT
BRANCH   1   3
ATOM      3  C   UNL     1      33.108   6.886 140.282  1.00  0.00     0.158 C 
BRANCH   3   4
ATOM      4  C   UNL     1      32.933   7.454 141.687  1.00  0.00     0.157 C 
ATOM      5  O   UNL     1      32.003   7.160 142.362  1.00  0.00    -0.298 OA
BRANCH   4   6
ATOM      6  C   UNL     1      33.994   8.425 142.189  1.00  0.00     0.199 C 
BRANCH   6   7
ATOM      7  C   UNL     1      34.506   7.956 143.551  1.00  0.00     0.310 C 
ATOM      8  O   UNL     1      34.478   8.741 144.540  1.00  0.00    -0.252 OA
BRANCH   7   9
ATOM      9  O   UNL     1      34.965   6.790 143.677  1.00  0.00    -0.481 OA
ATOM     10  H   UNL     1      34.773   6.291 144.447  1.00  0.00     0.296 HD
ENDBRANCH   7   9
ENDBRANCH   6   7
ENDBRANCH   4   6
ENDBRANCH   3   4
ENDBRANCH   1   3
BRANCH   1  11
ATOM     11  C   UNL     1      32.816   8.852 139.020  1.00  0.00     0.120 C 
BRANCH  11  12
ATOM     12  C   UNL     1      33.139   9.421 137.637  1.00  0.00     0.005 A 
ATOM     13  C   UNL     1      33.708  10.682 137.541  1.00  0.00     0.131 A 
ATOM     14  C   UNL     1      32.849   8.699 136.485  1.00  0.00     0.051 A 
ATOM     15  C   UNL     1      34.003  11.232 136.305  1.00  0.00     0.089 A 
ATOM     16  C   UNL     1      33.151   9.248 135.252  1.00  0.00     0.165 A 
ATOM     17  C   UNL     1      33.720  10.504 135.163  1.00  0.00     0.158 A 
ATOM     18  F   UNL     1      33.971  11.376 138.683  1.00  0.00    -0.207 F 
ATOM     19  F   UNL     1      32.892   8.564 134.103  1.00  0.00    -0.203 F 
BRANCH  17  20
ATOM     20  O   UNL     1      33.984  11.014 133.893  1.00  0.00    -0.486 OA
BRANCH  20  21
ATOM     21  C   UNL     1      32.912  11.698 133.311  1.00  0.00     0.265 C 
BRANCH  21  22
ATOM     22  C   UNL     1      33.430  13.114 133.149  1.00  0.00    -0.007 A 
ATOM     23  C   UNL     1      32.701  14.005 132.378  1.00  0.00    -0.037 A 
ATOM     24  C   UNL     1      34.594  13.494 133.779  1.00  0.00     0.007 A 
ATOM     25  C   UNL     1      33.150  15.300 132.224  1.00  0.00    -0.015 A 
ATOM     26  C   UNL     1      35.047  14.793 133.625  1.00  0.00     0.001 A 
ATOM     27  C   UNL     1      34.323  15.686 132.850  1.00  0.00     0.009 A 
ATOM     28  C   UNL     1      31.433  13.509 131.715  1.00  0.00     0.045 C 
BRANCH  25  29
ATOM     29  C   UNL     1      32.406  16.349 131.386  1.00  0.00    -0.014 A 
ATOM     30  C   UNL     1      32.951  16.661 130.151  1.00  0.00     0.059 A 
ATOM     31  C   UNL     1      31.260  17.009 131.850  1.00  0.00     0.013 A 
ATOM     32  C   UNL     1      32.327  17.629 129.346  1.00  0.00     0.161 A 
ATOM     33  C   UNL     1      30.625  17.969 131.050  1.00  0.00     0.051 A 
ATOM     34  O   UNL     1      32.914  17.917 128.095  1.00  0.00    -0.486 OA
ATOM     35  C   UNL     1      31.202  18.262 129.793  1.00  0.00     0.161 A 
ATOM     36  C   UNL     1      32.096  18.582 127.195  1.00  0.00     0.271 C 
ATOM     37  O   UNL     1      30.579  19.258 128.982  1.00  0.00    -0.486 OA
ATOM     38  C   UNL     1      31.377  19.720 127.896  1.00  0.00     0.271 C 
ENDBRANCH  25  29
ENDBRANCH  21  22
ENDBRANCH  20  21
ENDBRANCH  17  20
ENDBRANCH  11  12
ENDBRANCH   1  11
TORSDOF 11
ENDMDL
MODEL 6
REMARK VINA RESULT:    -9.529      2.363      2.918
REMARK INTER + INTRA:         -17.205
REMARK INTER:                 -15.985
REMARK INTRA:                  -1.220
REMARK UNBOUND:                -1.828
REMARK SMILES Cc1c(COc2cc(F)c(CNCC(=O)CC(=O)O)cc2F)cccc1-c1ccc2c(c1)OCCO2
REMARK SMILES IDX 12 1 13 3 14 4 15 5 16 6 17 7 18 8 19 9 11 11 10 12 8 13
REMARK SMILES IDX 20 14 7 15 21 16 6 17 9 18 22 19 5 20 4 21 3 22 2 23 23 24
REMARK SMILES IDX 26 25 24 26 25 27 1 28 27 29 32 30 28 31 31 32 29 33 33 34
REMARK SMILES IDX 30 35 34 36 36 37 35 38
REMARK H PARENT 12 2 19 10
ROOT
ATOM      1  N   UNL     1      30.685   6.005 136.470  1.00  0.00    -0.306 NA
ATOM      2  H   UNL     1      30.193   6.669 137.068  1.00  0.00     0.123 HD
ENDROOT
BRANCH   1   3
ATOM      3  C   UNL     1      30.351   4.655 136.865  1.00  0.00     0.158 C 
BRANCH   3   4
ATOM      4  C   UNL     1      28.912   4.615 137.371  1.00  0.00     0.157 C 
ATOM      5  O   UNL     1      28.138   3.809 136.973  1.00  0.00    -0.298 OA
BRANCH   4   6
ATOM      6  C   UNL     1      28.500   5.657 138.404  1.00  0.00     0.199 C 
BRANCH   6   7
ATOM      7  C   UNL     1      28.522   5.028 139.797  1.00  0.00     0.310 C 
ATOM      8  O   UNL     1      27.565   5.230 140.595  1.00  0.00    -0.252 OA
BRANCH   7   9
ATOM      9  O   UNL     1      29.503   4.318 140.145  1.00  0.00    -0.481 OA
ATOM     10  H   UNL     1      30.155   4.079 139.516  1.00  0.00     0.296 HD
ENDBRANCH   7   9
ENDBRANCH   6   7
ENDBRANCH   4   6
ENDBRANCH   3   4
ENDBRANCH   1   3
BRANCH   1  11
ATOM     11  C   UNL     1      32.114   6.194 136.608  1.00  0.00     0.120 C 
BRANCH  11  12
ATOM     12  C   UNL     1      32.576   7.560 136.095  1.00  0.00     0.005 A 
ATOM     13  C   UNL     1      32.569   7.806 134.731  1.00  0.00     0.131 A 
ATOM     14  C   UNL     1      33.017   8.539 136.978  1.00  0.00     0.051 A 
ATOM     15  C   UNL     1      32.990   9.028 134.232  1.00  0.00     0.089 A 
ATOM     16  C   UNL     1      33.431   9.760 136.477  1.00  0.00     0.165 A 
ATOM     17  C   UNL     1      33.421  10.001 135.117  1.00  0.00     0.158 A 
ATOM     18  F   UNL     1      32.144   6.827 133.885  1.00  0.00    -0.207 F 
ATOM     19  F   UNL     1      33.858  10.746 137.313  1.00  0.00    -0.203 F 
BRANCH  17  20
ATOM     20  O   UNL     1      33.867  11.243 134.669  1.00  0.00    -0.486 OA
BRANCH  20  21
ATOM     21  C   UNL     1      33.318  11.647 133.447  1.00  0.00     0.265 C 
BRANCH  21  22
ATOM     22  C   UNL     1      33.711  13.108 133.338  1.00  0.00    -0.007 A 
ATOM     23  C   UNL     1      32.940  13.947 132.550  1.00  0.00    -0.037 A 
ATOM     24  C   UNL     1      34.805  13.577 134.031  1.00  0.00     0.007 A 
ATOM     25  C   UNL     1      33.275  15.280 132.443  1.00  0.00    -0.015 A 
ATOM     26  C   UNL     1      35.144  14.915 133.925  1.00  0.00     0.001 A 
ATOM     27  C   UNL     1      34.377  15.757 133.134  1.00  0.00     0.009 A 
ATOM     28  C   UNL     1      31.756  13.354 131.817  1.00  0.00     0.045 C 
BRANCH  25  29
ATOM     29  C   UNL     1      32.479  16.278 131.592  1.00  0.00    -0.014 A 
ATOM     30  C   UNL     1      33.023  16.625 130.366  1.00  0.00     0.059 A 
ATOM     31  C   UNL     1      31.283  16.860 132.035  1.00  0.00     0.013 A 
ATOM     32  C   UNL     1      32.350  17.549 129.549  1.00  0.00     0.161 A 
ATOM     33  C   UNL     1      30.600  17.775 131.222  1.00  0.00     0.051 A 
ATOM     34  O   UNL     1      32.938  17.875 128.308  1.00  0.00    -0.486 OA
ATOM     35  C   UNL     1      31.178  18.106 129.974  1.00  0.00     0.161 A 
ATOM     36  C   UNL     1      32.094  18.484 127.393  1.00  0.00     0.271 C 
ATOM     37  O   UNL     1      30.504  19.058 129.152  1.00  0.00    -0.486 OA
ATOM     38  C   UNL     1      31.289  19.572 128.079  1.00  0.00     0.271 C 
ENDBRANCH  25  29
ENDBRANCH  21  22
ENDBRANCH  20  21
ENDBRANCH  17  20
ENDBRANCH  11  12
ENDBRANCH   1  11
TORSDOF 11
ENDMDL
MODEL 7
REMARK VINA RESULT:    -9.528      3.289     11.774
REMARK INTER + INTRA:         -17.204
REMARK INTER:                 -15.735
REMARK INTRA:                  -1.470
REMARK UNBOUND:                -1.828
REMARK SMILES Cc1c(COc2cc(F)c(CNCC(=O)CC(=O)O)cc2F)cccc1-c1ccc2c(c1)OCCO2
REMARK SMILES IDX 12 1 13 3 14 4 15 5 16 6 17 7 18 8 19 9 11 11 10 12 8 13
REMARK SMILES IDX 20 14 7 15 21 16 6 17 9 18 22 19 5 20 4 21 3 22 2 23 23 24
REMARK SMILES IDX 26 25 24 26 25 27 1 28 27 29 32 30 28 31 31 32 29 33 33 34
REMARK SMILES IDX 30 35 34 36 36 37 35 38
REMARK H PARENT 12 2 19 10
ROOT
ATOM      1  N   UNL     1      32.085  17.057 131.630  1.00  0.00    -0.306 NA
ATOM      2  H   UNL     1      32.502  17.149 132.557  1.00  0.00     0.123 HD
ENDROOT
BRANCH   1   3
ATOM      3  C   UNL     1      30.661  16.841 131.759  1.00  0.00     0.158 C 
BRANCH   3   4
ATOM      4  C   UNL     1      29.912  18.068 131.248  1.00  0.00     0.157 C 
ATOM      5  O   UNL     1      29.388  18.827 131.993  1.00  0.00    -0.298 OA
BRANCH   4   6
ATOM      6  C   UNL     1      29.853  18.279 129.740  1.00  0.00     0.199 C 
BRANCH   6   7
ATOM      7  C   UNL     1      30.957  19.249 129.320  1.00  0.00     0.310 C 
ATOM      8  O   UNL     1      32.147  18.842 129.211  1.00  0.00    -0.252 OA
BRANCH   7   9
ATOM      9  O   UNL     1      30.673  20.456 129.094  1.00  0.00    -0.481 OA
ATOM     10  H   UNL     1      29.921  20.672 128.579  1.00  0.00     0.296 HD
ENDBRANCH   7   9
ENDBRANCH   6   7
ENDBRANCH   4   6
ENDBRANCH   3   4
ENDBRANCH   1   3
BRANCH   1  11
ATOM     11  C   UNL     1      32.671  15.924 130.944  1.00  0.00     0.120 C 
BRANCH  11  12
ATOM     12  C   UNL     1      33.097  14.813 131.906  1.00  0.00     0.005 A 
ATOM     13  C   UNL     1      32.252  13.733 132.106  1.00  0.00     0.131 A 
ATOM     14  C   UNL     1      34.305  14.889 132.590  1.00  0.00     0.051 A 
ATOM     15  C   UNL     1      32.601  12.715 132.978  1.00  0.00     0.089 A 
ATOM     16  C   UNL     1      34.654  13.868 133.455  1.00  0.00     0.165 A 
ATOM     17  C   UNL     1      33.809  12.793 133.650  1.00  0.00     0.158 A 
ATOM     18  F   UNL     1      31.068  13.687 131.434  1.00  0.00    -0.207 F 
ATOM     19  F   UNL     1      35.834  13.903 134.133  1.00  0.00    -0.203 F 
BRANCH  17  20
ATOM     20  O   UNL     1      34.205  11.803 134.548  1.00  0.00    -0.486 OA
BRANCH  20  21
ATOM     21  C   UNL     1      33.658  10.541 134.294  1.00  0.00     0.265 C 
BRANCH  21  22
ATOM     22  C   UNL     1      33.564   9.903 135.666  1.00  0.00    -0.007 A 
ATOM     23  C   UNL     1      32.947   8.667 135.785  1.00  0.00    -0.037 A 
ATOM     24  C   UNL     1      34.104  10.544 136.759  1.00  0.00     0.007 A 
ATOM     25  C   UNL     1      32.858   8.066 137.022  1.00  0.00    -0.015 A 
ATOM     26  C   UNL     1      34.015   9.942 138.002  1.00  0.00     0.001 A 
ATOM     27  C   UNL     1      33.394   8.709 138.125  1.00  0.00     0.009 A 
ATOM     28  C   UNL     1      32.376   8.029 134.536  1.00  0.00     0.045 C 
BRANCH  25  29
ATOM     29  C   UNL     1      32.191   6.702 137.243  1.00  0.00    -0.014 A 
ATOM     30  C   UNL     1      30.919   6.711 137.793  1.00  0.00     0.059 A 
ATOM     31  C   UNL     1      32.837   5.492 136.958  1.00  0.00     0.013 A 
ATOM     32  C   UNL     1      30.263   5.494 138.037  1.00  0.00     0.161 A 
ATOM     33  C   UNL     1      32.187   4.271 137.189  1.00  0.00     0.051 A 
ATOM     34  O   UNL     1      28.969   5.548 138.599  1.00  0.00    -0.486 OA
ATOM     35  C   UNL     1      30.888   4.314 137.747  1.00  0.00     0.161 A 
ATOM     36  C   UNL     1      28.224   4.384 138.487  1.00  0.00     0.271 C 
ATOM     37  O   UNL     1      30.229   3.077 138.012  1.00  0.00    -0.486 OA
ATOM     38  C   UNL     1      29.082   3.186 138.851  1.00  0.00     0.271 C 
ENDBRANCH  25  29
ENDBRANCH  21  22
ENDBRANCH  20  21
ENDBRANCH  17  20
ENDBRANCH  11  12
ENDBRANCH   1  11
TORSDOF 11
ENDMDL
MODEL 8
REMARK VINA RESULT:    -9.343      3.400      4.228
REMARK INTER + INTRA:         -16.907
REMARK INTER:                 -15.376
REMARK INTRA:                  -1.530
REMARK UNBOUND:                -1.828
REMARK SMILES Cc1c(COc2cc(F)c(CNCC(=O)CC(=O)O)cc2F)cccc1-c1ccc2c(c1)OCCO2
REMARK SMILES IDX 12 1 13 3 14 4 15 5 16 6 17 7 18 8 19 9 11 11 10 12 8 13
REMARK SMILES IDX 20 14 7 15 21 16 6 17 9 18 22 19 5 20 4 21 3 22 2 23 23 24
REMARK SMILES IDX 26 25 24 26 25 27 1 28 27 29 32 30 28 31 31 32 29 33 33 34
REMARK SMILES IDX 30 35 34 36 36 37 35 38
REMARK H PARENT 12 2 19 10
ROOT
ATOM      1  N   UNL     1      30.347   5.565 136.088  1.00  0.00    -0.306 NA
ATOM      2  H   UNL     1      29.681   6.217 136.504  1.00  0.00     0.123 HD
ENDROOT
BRANCH   1   3
ATOM      3  C   UNL     1      30.012   4.214 136.478  1.00  0.00     0.158 C 
BRANCH   3   4
ATOM      4  C   UNL     1      30.038   3.309 135.250  1.00  0.00     0.157 C 
ATOM      5  O   UNL     1      30.137   2.132 135.351  1.00  0.00    -0.298 OA
BRANCH   4   6
ATOM      6  C   UNL     1      29.942   3.976 133.883  1.00  0.00     0.199 C 
BRANCH   6   7
ATOM      7  C   UNL     1      28.666   3.512 133.180  1.00  0.00     0.310 C 
ATOM      8  O   UNL     1      28.397   3.930 132.020  1.00  0.00    -0.252 OA
BRANCH   7   9
ATOM      9  O   UNL     1      27.883   2.720 133.769  1.00  0.00    -0.481 OA
ATOM     10  H   UNL     1      28.008   2.526 134.678  1.00  0.00     0.296 HD
ENDBRANCH   7   9
ENDBRANCH   6   7
ENDBRANCH   4   6
ENDBRANCH   3   4
ENDBRANCH   1   3
BRANCH   1  11
ATOM     11  C   UNL     1      31.682   5.872 136.556  1.00  0.00     0.120 C 
BRANCH  11  12
ATOM     12  C   UNL     1      32.185   7.224 136.046  1.00  0.00     0.005 A 
ATOM     13  C   UNL     1      32.488   7.367 134.700  1.00  0.00     0.131 A 
ATOM     14  C   UNL     1      32.359   8.293 136.916  1.00  0.00     0.051 A 
ATOM     15  C   UNL     1      32.956   8.573 134.206  1.00  0.00     0.089 A 
ATOM     16  C   UNL     1      32.820   9.498 136.419  1.00  0.00     0.165 A 
ATOM     17  C   UNL     1      33.119   9.636 135.077  1.00  0.00     0.158 A 
ATOM     18  F   UNL     1      32.321   6.301 133.869  1.00  0.00    -0.207 F 
ATOM     19  F   UNL     1      32.992  10.571 137.240  1.00  0.00    -0.203 F 
BRANCH  17  20
ATOM     20  O   UNL     1      33.598  10.869 134.636  1.00  0.00    -0.486 OA
BRANCH  20  21
ATOM     21  C   UNL     1      32.999  11.334 133.460  1.00  0.00     0.265 C 
BRANCH  21  22
ATOM     22  C   UNL     1      33.508  12.756 133.332  1.00  0.00    -0.007 A 
ATOM     23  C   UNL     1      32.780  13.658 132.571  1.00  0.00    -0.037 A 
ATOM     24  C   UNL     1      34.663  13.132 133.981  1.00  0.00     0.007 A 
ATOM     25  C   UNL     1      33.221  14.958 132.448  1.00  0.00    -0.015 A 
ATOM     26  C   UNL     1      35.108  14.437 133.858  1.00  0.00     0.001 A 
ATOM     27  C   UNL     1      34.385  15.341 133.094  1.00  0.00     0.009 A 
ATOM     28  C   UNL     1      31.523  13.165 131.887  1.00  0.00     0.045 C 
BRANCH  25  29
ATOM     29  C   UNL     1      32.478  16.019 131.625  1.00  0.00    -0.014 A 
ATOM     30  C   UNL     1      33.027  16.353 130.397  1.00  0.00     0.059 A 
ATOM     31  C   UNL     1      31.327  16.667 132.094  1.00  0.00     0.013 A 
ATOM     32  C   UNL     1      32.403  17.331 129.606  1.00  0.00     0.161 A 
ATOM     33  C   UNL     1      30.692  17.638 131.307  1.00  0.00     0.051 A 
ATOM     34  O   UNL     1      32.995  17.642 128.362  1.00  0.00    -0.486 OA
ATOM     35  C   UNL     1      31.274  17.954 130.057  1.00  0.00     0.161 A 
ATOM     36  C   UNL     1      32.179  18.320 127.470  1.00  0.00     0.271 C 
ATOM     37  O   UNL     1      30.651  18.960 129.260  1.00  0.00    -0.486 OA
ATOM     38  C   UNL     1      31.453  19.443 128.185  1.00  0.00     0.271 C 
ENDBRANCH  25  29
ENDBRANCH  21  22
ENDBRANCH  20  21
ENDBRANCH  17  20
ENDBRANCH  11  12
ENDBRANCH   1  11
TORSDOF 11
ENDMDL
