7uj4
     RDKit          3D

 44 48  0  0  0  0  0  0  0  0999 V2000
  -24.7946    1.3648   23.1744 C   0  0  0  0  0  0  0  0  0  0  0  0
  -23.5343    1.8481   25.2251 N   0  0  0  0  0  0  0  0  0  0  0  0
  -23.9298    0.6559   27.1272 O   0  0  0  0  0  0  0  0  0  0  0  0
  -19.5517  -12.2615   22.4378 S   0  0  1  0  0  6  0  0  0  0  0  0
  -24.7855    1.3858   24.6729 C   0  0  1  0  0  0  0  0  0  0  0  0
  -17.8801    2.9845   23.5294 N   0  0  0  0  0  0  0  0  0  0  0  0
  -20.4624    1.2401   25.3868 O   0  0  0  0  0  0  0  0  0  0  0  0
  -25.8828    2.3301   25.1846 C   0  0  0  0  0  0  0  0  0  0  0  0
  -18.5088    1.0805   22.3968 N   0  0  0  0  0  0  0  0  0  0  0  0
  -20.5215  -12.6283   23.5259 O   0  0  0  0  0  0  0  0  0  0  0  0
  -22.6743    2.7196   24.4362 C   0  0  0  0  0  0  0  0  0  0  0  0
  -20.1996   -0.4366   23.2281 N   0  0  0  0  0  0  0  0  0  0  0  0
  -20.0669  -12.8523   21.1567 O   0  0  0  0  0  0  0  0  0  0  0  0
  -22.6748    4.1372   24.9326 C   0  0  0  0  0  0  0  0  0  0  0  0
  -20.1726   -5.2290   22.1232 N   0  0  0  0  0  0  0  0  0  0  0  0
  -23.1730    1.4437   26.5352 C   0  0  0  0  0  0  0  0  0  0  0  0
  -19.5163  -10.5533   22.2665 N   0  0  0  0  0  0  0  0  0  0  0  0
  -21.9518    1.9595   27.1207 C   0  0  0  0  0  0  0  0  0  0  0  0
  -22.0309    2.6039   28.3600 C   0  0  0  0  0  0  0  0  0  0  0  0
  -20.9353    3.0976   29.0173 C   0  0  0  0  0  0  0  0  0  0  0  0
  -19.6685    2.9735   28.4623 C   0  0  0  0  0  0  0  0  0  0  0  0
  -19.5761    2.3463   27.2518 C   0  0  0  0  0  0  0  0  0  0  0  0
  -20.6999    1.8413   26.5783 C   0  0  0  0  0  0  0  0  0  0  0  0
  -19.5336    1.6053   24.4377 C   0  0  0  0  0  0  0  0  0  0  0  0
  -18.7460    2.7402   24.5176 C   0  0  0  0  0  0  0  0  0  0  0  0
  -17.7505    2.1708   22.4702 C   0  0  0  0  0  0  0  0  0  0  0  0
  -19.4201    0.7372   23.3447 C   0  0  0  0  0  0  0  0  0  0  0  0
  -20.9010   -1.0681   22.1277 C   0  0  0  0  0  0  0  0  0  0  0  0
  -20.6631   -1.5222   24.0572 C   0  0  0  0  0  0  0  0  0  0  0  0
  -20.5971   -2.3912   22.8220 C   0  0  2  0  0  0  0  0  0  0  0  0
  -19.2543   -2.9865   22.5322 C   0  0  0  0  0  0  0  0  0  0  0  0
  -19.2634   -4.4419   22.9577 C   0  0  0  0  0  0  0  0  0  0  0  0
  -21.6321   -3.4530   22.6696 C   0  0  0  0  0  0  0  0  0  0  0  0
  -21.1219   -4.3846   21.5329 C   0  0  0  0  0  0  0  0  0  0  0  0
  -19.4074   -6.1373   21.3841 C   0  0  0  0  0  0  0  0  0  0  0  0
  -19.3357   -7.5649   21.8506 C   0  0  1  0  0  0  0  0  0  0  0  0
  -18.1450   -8.2396   21.2503 C   0  0  0  0  0  0  0  0  0  0  0  0
  -17.4470   -9.2310   22.1074 C   0  0  0  0  0  0  0  0  0  0  0  0
  -19.5866   -7.6929   23.2806 C   0  0  0  0  0  0  0  0  0  0  0  0
  -18.9790   -8.8998   23.9475 C   0  0  0  0  0  0  0  0  0  0  0  0
  -18.4601   -9.9255   22.9923 C   0  0  1  0  0  0  0  0  0  0  0  0
  -17.9725  -12.9267   22.8779 C   0  0  0  0  0  0  0  0  0  0  0  0
  -17.1879  -13.2192   21.6390 C   0  0  0  0  0  0  0  0  0  0  0  0
  -21.0182    3.7231   30.2244 F   0  0  0  0  0  0  0  0  0  0  0  0
  5  1  1  6
  2 11  1  0
  2 16  1  0
  4 10  2  0
  4 13  2  0
  4 42  1  1
  2  5  1  0
  5  8  1  0
  6 26  2  0
  7 24  1  0
  9 27  2  0
 11 14  1  0
 12 28  1  0
 12 29  1  0
 15 35  1  0
  3 16  2  0
 16 18  1  0
  4 17  1  0
 18 19  2  0
 18 23  1  0
 19 20  1  0
 20 21  2  0
 20 44  1  0
 21 22  1  0
 22 23  2  0
  7 23  1  0
 24 25  2  0
 24 27  1  0
  6 25  1  0
  9 26  1  0
 12 27  1  0
 30 28  1  6
 29 30  1  0
 30 31  1  0
 30 33  1  0
 31 32  1  0
 15 32  1  0
 33 34  1  0
 15 34  1  0
 36 35  1  1
 36 37  1  0
 36 39  1  0
 37 38  1  0
 38 41  1  0
 39 40  1  0
 40 41  1  0
 41 17  1  6
 42 43  1  0
M  END
$$$$
