ziftomenib.sdf
     RDKit          3D

 49 54  0  0  1  0  0  0  0  0999 V2000
  -16.7654  -12.3494   21.6205 N   0  0  0  0  0  0  0  0  0  0  0  0
  -17.4600  -11.4635   21.9240 C   0  0  0  0  0  0  0  0  0  0  0  0
  -18.2965  -10.3744   22.3001 C   0  0  0  0  0  0  0  0  0  0  0  0
  -19.3337  -10.3630   23.1799 N   0  0  0  0  0  0  0  0  0  0  0  0
  -19.7288  -11.5496   23.8950 C   0  0  0  0  0  0  0  0  0  0  0  0
  -21.1279  -11.9959   23.5592 C   0  0  1  0  0  0  0  0  0  0  0  0
  -21.1191  -12.6377   22.2644 N   0  0  0  0  0  0  0  0  0  0  0  0
  -20.6616  -13.9894   22.3118 C   0  0  0  0  0  0  0  0  0  0  0  0
  -21.6925  -14.9806   21.8214 C   0  0  0  0  0  0  0  0  0  0  0  0
  -22.1020  -14.6459   20.4999 N   0  0  0  0  0  0  0  0  0  0  0  0
  -21.0420  -15.1615   19.2737 S   0  0  1  0  0  6  0  0  0  0  0  0
  -19.6431  -15.4636   19.7926 O   0  0  0  0  0  0  0  0  0  0  0  0
  -21.7001  -16.6295   18.5023 C   0  0  0  0  0  0  0  0  0  0  0  0
  -20.8733  -14.1260   18.1902 O   0  0  0  0  0  0  0  0  0  0  0  0
  -22.5964  -13.3192   20.3839 C   0  0  0  0  0  0  0  0  0  0  0  0
  -22.2688  -12.3736   21.4829 C   0  0  0  0  0  0  0  0  0  0  0  0
  -21.6471  -12.8657   24.6481 C   0  0  0  0  0  0  0  0  0  0  0  0
  -18.1471   -9.0852   21.7766 C   0  0  0  0  0  0  0  0  0  0  0  0
  -19.1226   -8.3332   22.3776 C   0  0  0  0  0  0  0  0  0  0  0  0
  -19.8378   -9.1228   23.2296 C   0  0  0  0  0  0  0  0  0  0  0  0
  -20.8691   -8.5486   23.9452 C   0  0  0  0  0  0  0  0  0  0  0  0
  -21.1415   -7.2197   23.7795 C   0  0  0  0  0  0  0  0  0  0  0  0
  -20.4073   -6.3922   22.8975 C   0  0  0  0  0  0  0  0  0  0  0  0
  -20.8260   -4.9775   22.7730 C   0  0  0  0  0  0  0  0  0  0  0  0
  -20.0970   -4.1428   21.9202 N   0  0  0  0  0  0  0  0  0  0  0  0
  -18.7658   -3.7710   22.1714 C   0  0  0  0  0  0  0  0  0  0  0  0
  -18.5977   -2.6635   23.1572 C   0  0  0  0  0  0  0  0  0  0  0  0
  -19.4409   -1.4728   22.8169 C   0  0  2  0  0  0  0  0  0  0  0  0
  -19.5456   -0.5849   23.9637 N   0  0  0  0  0  0  0  0  0  0  0  0
  -19.2457    0.7888   23.9674 C   0  0  0  0  0  0  0  0  0  0  0  0
  -19.5016    1.5873   25.1143 C   0  0  0  0  0  0  0  0  0  0  0  0
  -20.0286    1.1779   26.2828 C   0  0  0  0  0  0  0  0  0  0  0  0
  -20.2057    2.0859   27.2707 C   0  0  0  0  0  0  0  0  0  0  0  0
  -20.7597    1.9255   28.6374 C   0  0  0  0  0  0  0  0  0  0  0  0
  -21.8482    2.9680   28.8186 C   0  0  1  0  0  0  0  0  0  0  0  0
  -22.8934    2.7479   27.9207 F   0  0  0  0  0  0  0  0  0  0  0  0
  -22.3812    2.9300   30.0809 F   0  0  0  0  0  0  0  0  0  0  0  0
  -21.3873    4.2315   28.5610 F   0  0  0  0  0  0  0  0  0  0  0  0
  -19.6222    3.5754   26.5664 S   0  0  0  0  0  0  0  0  0  0  0  0
  -19.1670    2.8889   24.9663 C   0  0  0  0  0  0  0  0  0  0  0  0
  -18.6308    3.4520   23.8546 N   0  0  0  0  0  0  0  0  0  0  0  0
  -18.3989    2.6525   22.7729 C   0  0  0  0  0  0  0  0  0  0  0  0
  -17.8546    3.1486   21.5835 N   0  0  0  0  0  0  0  0  0  0  0  0
  -17.6472    2.2077   20.4784 C   0  0  0  0  0  0  0  0  0  0  0  0
  -18.7205    1.3628   22.8917 N   0  0  0  0  0  0  0  0  0  0  0  0
  -20.8134   -1.8622   22.4041 C   0  0  0  0  0  0  0  0  0  0  0  0
  -20.8800   -3.0104   21.4228 C   0  0  0  0  0  0  0  0  0  0  0  0
  -19.3876   -6.9646   22.1944 C   0  0  0  0  0  0  0  0  0  0  0  0
  -18.5230   -6.1687   21.2855 C   0  0  0  0  0  0  0  0  0  0  0  0
  1  2  3  0
  2  3  1  0
  3  4  1  0
  4  5  1  0
  5  6  1  0
  6  7  1  0
  7  8  1  0
  8  9  1  0
  9 10  1  0
 10 11  1  0
 11 12  2  0
 11 13  1  6
 11 14  2  0
 10 15  1  0
 15 16  1  0
  7 16  1  0
  6 17  1  1
  3 18  2  0
 18 19  1  0
 19 20  2  0
  4 20  1  0
 20 21  1  0
 21 22  2  0
 22 23  1  0
 23 24  1  0
 24 25  1  0
 25 26  1  0
 26 27  1  0
 27 28  1  0
 28 29  1  1
 29 30  1  0
 30 31  2  0
 31 32  1  0
 32 33  2  0
 33 34  1  0
 34 35  1  0
 35 36  1  6
 35 37  1  0
 35 38  1  0
 33 39  1  0
 31 40  1  0
 39 40  1  0
 40 41  2  0
 41 42  1  0
 42 43  1  0
 43 44  1  0
 42 45  2  0
 30 45  1  0
 28 46  1  0
 46 47  1  0
 25 47  1  0
 23 48  2  0
 19 48  1  0
 48 49  1  0
M  END
$$$$
