7uj4
     RDKit          3D

 45 49  0  0  0  0  0  0  0  0999 V2000
  -21.4866    2.7255   23.4019 N   0  0  0  0  0  0  0  0  0  0  0  0
  -25.8667    3.1267   25.5174 N   0  0  0  0  0  0  0  0  0  0  0  0
  -22.8347    2.1843   23.4441 C   0  0  0  0  0  0  0  0  0  0  0  0
  -21.6170    3.8483   24.3231 C   0  0  0  0  0  0  0  0  0  0  0  0
  -23.0910    3.3057   24.5417 C   0  0  0  0  0  0  0  0  0  0  0  0
  -23.4230    2.7571   25.9288 C   0  0  0  0  0  0  0  0  0  0  0  0
  -24.8064    2.1486   25.9528 C   0  0  0  0  0  0  0  0  0  0  0  0
  -24.1681    4.3139   24.1509 C   0  0  0  0  0  0  0  0  0  0  0  0
  -25.5518    3.7134   24.1762 C   0  0  0  0  0  0  0  0  0  0  0  0
  -18.1803    1.2485   21.5301 N   0  0  0  0  0  0  0  0  0  0  0  0
  -19.2186    2.8312   22.9647 N   0  0  0  0  0  0  0  0  0  0  0  0
  -20.4574    1.0780   22.0097 C   0  0  0  0  0  0  0  0  0  0  0  0
  -19.3290    0.6213   21.3768 C   0  0  0  0  0  0  0  0  0  0  0  0
  -18.1518    2.2975   22.3599 C   0  0  0  0  0  0  0  0  0  0  0  0
  -20.3770    2.2021   22.8219 C   0  0  0  0  0  0  0  0  0  0  0  0
  -21.6207    0.4080   21.8301 O   0  0  0  0  0  0  0  0  0  0  0  0
  -22.1411   -1.8844   21.3843 C   0  0  0  0  0  0  0  0  0  0  0  0
  -22.2850   -2.9099   20.4484 C   0  0  0  0  0  0  0  0  0  0  0  0
  -22.1080   -2.6150   19.1192 C   0  0  0  0  0  0  0  0  0  0  0  0
  -21.7816   -1.3661   18.6455 C   0  0  0  0  0  0  0  0  0  0  0  0
  -21.6141   -0.3557   19.5728 C   0  0  0  0  0  0  0  0  0  0  0  0
  -21.7473   -0.6280   20.9171 C   0  0  0  0  0  0  0  0  0  0  0  0
  -22.2526   -3.5978   18.2041 F   0  0  0  0  0  0  0  0  0  0  0  0
  -21.6726   -2.9626   23.6139 N   0  0  0  0  0  0  0  0  0  0  0  0
  -23.2541   -1.4206   23.4009 O   0  0  0  0  0  0  0  0  0  0  0  0
  -22.3820   -2.0944   22.8705 C   0  0  0  0  0  0  0  0  0  0  0  0
  -21.2742   -5.3557   23.3112 C   0  0  0  0  0  0  0  0  0  0  0  0
  -20.7577   -3.9594   23.0435 C   0  0  0  0  0  0  0  0  0  0  0  0
  -19.3463   -3.7357   23.5222 C   0  0  0  0  0  0  0  0  0  0  0  0
  -21.8399   -3.0341   25.0730 C   0  0  0  0  0  0  0  0  0  0  0  0
  -21.1048   -1.9556   25.8119 C   0  0  0  0  0  0  0  0  0  0  0  0
  -27.2002    2.4501   25.4311 C   0  0  0  0  0  0  0  0  0  0  0  0
  -27.9427    2.3774   26.7658 C   0  0  1  0  0  0  0  0  0  0  0  0
  -28.5250    0.9847   27.0479 C   0  0  0  0  0  0  0  0  0  0  0  0
  -29.2345    0.9064   28.3893 C   0  0  0  0  0  0  0  0  0  0  0  0
  -27.0572    2.8462   27.9183 C   0  0  0  0  0  0  0  0  0  0  0  0
  -27.8143    2.8071   29.2377 C   0  0  0  0  0  0  0  0  0  0  0  0
  -28.3487    1.4100   29.5084 C   0  0  1  0  0  0  0  0  0  0  0  0
  -29.0875    1.4233   30.7830 N   0  0  0  0  0  0  0  0  0  0  0  0
  -29.0772    2.3916   31.1032 H   0  0  0  0  0  0  0  0  0  0  0  0
  -28.6569    0.5201   32.0709 S   0  0  0  0  0  0  0  0  0  0  0  0
  -27.7277   -0.4374   31.5512 O   0  0  0  0  0  0  0  0  0  0  0  0
  -28.2273    1.4323   33.0926 O   0  0  0  0  0  0  0  0  0  0  0  0
  -30.1419   -0.3186   32.5970 C   0  0  0  0  0  0  0  0  0  0  0  0
  -29.9612   -1.8163   32.7398 C   0  0  0  0  0  0  0  0  0  0  0  0
 27 28  1  0
 24 30  1  0
 24 26  1  0
 41 42  2  0
 41 43  2  0
 41 44  1  0
 24 28  1  0
 28 29  1  0
 10 14  2  0
 16 12  1  0
 11 15  2  0
 30 31  1  0
  1  3  1  0
  1  4  1  0
  2 32  1  0
 25 26  2  0
 26 17  1  0
 41 39  1  0
 17 18  2  0
 17 22  1  0
 18 19  1  0
 19 20  2  0
 19 23  1  0
 20 21  1  0
 21 22  2  0
 16 22  1  0
 12 13  2  0
 12 15  1  0
 10 13  1  0
 11 14  1  0
  1 15  1  0
  3  5  1  0
  4  5  1  0
  5  6  1  0
  5  8  1  0
  6  7  1  0
  2  7  1  0
  8  9  1  0
  2  9  1  0
 33 32  1  6
 33 34  1  0
 33 36  1  0
 34 35  1  0
 35 38  1  0
 36 37  1  0
 37 38  1  0
 38 39  1  1
 44 45  1  0
 39 40  1  0
M  END
>  <minimizedAffinity>  (1) 
-7.72168

>  <CNNscore>  (1) 
0.2011528015

>  <CNNaffinity>  (1) 
6.2847952843

>  <CNN_VS>  (1) 
1.2642041445

>  <CNNaffinity_variance>  (1) 
1.4098106623

$$$$
