ziftomenib.sdf
     RDKit          3D

 51 56  0  0  0  0  0  0  0  0999 V2000
  -22.4211    0.3037   22.3713 C   0  0  0  0  0  0  0  0  0  0  0  0
  -24.7245    2.3469   27.6636 C   0  0  0  0  0  0  0  0  0  0  0  0
  -25.6232    2.3007   26.6227 N   0  0  0  0  0  0  0  0  0  0  0  0
  -23.5227    1.8655   27.1957 C   0  0  0  0  0  0  0  0  0  0  0  0
  -23.6770    1.5251   25.8191 C   0  0  0  0  0  0  0  0  0  0  0  0
  -25.0066    1.8057   25.4856 C   0  0  0  0  0  0  0  0  0  0  0  0
  -25.5084    1.5834   24.1981 C   0  0  0  0  0  0  0  0  0  0  0  0
  -24.6343    1.0820   23.2351 C   0  0  0  0  0  0  0  0  0  0  0  0
  -23.2891    0.7985   23.5220 C   0  0  0  0  0  0  0  0  0  0  0  0
  -22.7860    1.0111   24.8343 C   0  0  0  0  0  0  0  0  0  0  0  0
  -21.3469    0.7088   25.1610 C   0  0  0  0  0  0  0  0  0  0  0  0
  -25.3060    3.2201   30.0225 N   0  0  0  0  0  0  0  0  0  0  0  0
  -25.0093    2.8201   28.9759 C   0  0  0  0  0  0  0  0  0  0  0  0
  -26.9991    2.7891   26.6925 C   0  0  0  0  0  0  0  0  0  0  0  0
  -28.0839    1.6790   26.5700 C   0  0  2  0  0  0  0  0  0  0  0  0
  -28.9520    1.9650   25.3278 C   0  0  0  0  0  0  0  0  0  0  0  0
  -28.9690    1.5620   27.7592 N   0  0  0  0  0  0  0  0  0  0  0  0
  -29.1362    0.1601   28.2259 C   0  0  0  0  0  0  0  0  0  0  0  0
  -28.4329   -0.1835   29.5566 C   0  0  0  0  0  0  0  0  0  0  0  0
  -28.8942    0.7095   30.6491 N   0  0  0  0  0  0  0  0  0  0  0  0
  -29.2920    2.0711   30.2141 C   0  0  0  0  0  0  0  0  0  0  0  0
  -28.6123    2.4495   28.8839 C   0  0  0  0  0  0  0  0  0  0  0  0
  -28.1894    0.5202   32.1660 S   0  0  0  0  0  0  0  0  0  0  0  0
  -29.1892    0.8343   33.1639 O   0  0  0  0  0  0  0  0  0  0  0  0
  -27.8780   -1.2349   32.2397 C   0  0  0  0  0  0  0  0  0  0  0  0
  -26.9086    1.1942   32.1455 O   0  0  0  0  0  0  0  0  0  0  0  0
  -23.1932    0.0170   21.1506 N   0  0  0  0  0  0  0  0  0  0  0  0
  -23.6788   -1.3673   21.0780 C   0  0  0  0  0  0  0  0  0  0  0  0
  -22.5908   -2.3922   20.7552 C   0  0  0  0  0  0  0  0  0  0  0  0
  -21.8205   -2.0099   19.4864 C   0  0  0  0  0  0  0  0  0  0  0  0
  -21.3189   -0.5662   19.5899 C   0  0  0  0  0  0  0  0  0  0  0  0
  -22.4652    0.3820   19.9300 C   0  0  0  0  0  0  0  0  0  0  0  0
  -20.6957   -2.9378   19.3356 N   0  0  0  0  0  0  0  0  0  0  0  0
  -19.7813   -2.6800   19.5936 H   0  0  0  0  0  0  0  0  0  0  0  0
  -20.9731   -4.2013   18.8118 C   0  0  0  0  0  0  0  0  0  0  0  0
  -20.6069   -5.3805   19.4854 C   0  0  0  0  0  0  0  0  0  0  0  0
  -19.9409   -5.6426   20.7322 C   0  0  0  0  0  0  0  0  0  0  0  0
  -19.7923   -6.9910   20.9917 C   0  0  0  0  0  0  0  0  0  0  0  0
  -20.4596   -7.9424   19.7329 S   0  0  0  0  0  0  0  0  0  0  0  0
  -20.9376   -6.5636   18.8517 C   0  0  0  0  0  0  0  0  0  0  0  0
  -21.5657   -6.6923   17.6757 N   0  0  0  0  0  0  0  0  0  0  0  0
  -21.8845   -5.5274   17.1152 C   0  0  0  0  0  0  0  0  0  0  0  0
  -21.6189   -4.3181   17.6309 N   0  0  0  0  0  0  0  0  0  0  0  0
  -22.5428   -5.6231   15.8930 N   0  0  0  0  0  0  0  0  0  0  0  0
  -23.7994   -4.9083   15.8497 C   0  0  0  0  0  0  0  0  0  0  0  0
  -22.1861   -6.1304   15.1284 H   0  0  0  0  0  0  0  0  0  0  0  0
  -19.1471   -7.6486   22.1796 C   0  0  0  0  0  0  0  0  0  0  0  0
  -17.6931   -8.0146   21.9423 C   0  0  0  0  0  0  0  0  0  0  0  0
  -17.3819   -7.9961   20.6262 F   0  0  0  0  0  0  0  0  0  0  0  0
  -16.8465   -7.1841   22.5872 F   0  0  0  0  0  0  0  0  0  0  0  0
  -17.4488   -9.2684   22.3929 F   0  0  0  0  0  0  0  0  0  0  0  0
 12 13  3  0
 13  2  1  0
  2  3  1  0
  3 14  1  0
 14 15  1  0
 15 17  1  0
 17 18  1  0
 18 19  1  0
 19 20  1  0
 20 23  1  0
 23 24  2  0
 23 25  1  0
 23 26  2  0
 20 21  1  0
 21 22  1  0
 17 22  1  0
 15 16  1  6
  2  4  2  0
  4  5  1  0
  5  6  2  0
  3  6  1  0
  6  7  1  0
  7  8  2  0
  8  9  1  0
  9  1  1  0
  1 27  1  0
 27 28  1  0
 28 29  1  0
 29 30  1  0
 30 33  1  0
 33 35  1  0
 35 36  2  0
 36 37  1  0
 37 38  2  0
 38 47  1  0
 47 48  1  0
 48 49  1  0
 48 50  1  0
 48 51  1  0
 38 39  1  0
 36 40  1  0
 39 40  1  0
 40 41  2  0
 41 42  1  0
 42 44  1  0
 44 45  1  0
 42 43  2  0
 35 43  1  0
 30 31  1  0
 31 32  1  0
 27 32  1  0
  9 10  2  0
  5 10  1  0
 10 11  1  0
 33 34  1  0
 44 46  1  0
M  END
>  <minimizedAffinity>  (1) 
-8.43105

>  <CNNscore>  (1) 
0.1090331823

>  <CNNaffinity>  (1) 
5.9053597450

>  <CNN_VS>  (1) 
0.6438801885

>  <CNNaffinity_variance>  (1) 
1.5138339996

$$$$
