7uj4
     RDKit          3D

 45 49  0  0  0  0  0  0  0  0999 V2000
  -22.9952   -0.7719   25.9545 N   0  0  0  0  0  0  0  0  0  0  0  0
  -20.7390   -4.1658   23.2688 N   0  0  0  0  0  0  0  0  0  0  0  0
  -21.7098   -1.3762   25.6468 C   0  0  0  0  0  0  0  0  0  0  0  0
  -23.8540   -1.4621   24.9992 C   0  0  0  0  0  0  0  0  0  0  0  0
  -22.5416   -2.2726   24.6308 C   0  0  0  0  0  0  0  0  0  0  0  0
  -22.5375   -3.7635   24.9662 C   0  0  0  0  0  0  0  0  0  0  0  0
  -21.1825   -4.3754   24.6934 C   0  0  0  0  0  0  0  0  0  0  0  0
  -22.1189   -2.1044   23.1740 C   0  0  0  0  0  0  0  0  0  0  0  0
  -20.7685   -2.7162   22.8945 C   0  0  0  0  0  0  0  0  0  0  0  0
  -24.1301    1.7267   28.9687 N   0  0  0  0  0  0  0  0  0  0  0  0
  -23.9730   -0.4469   28.0244 N   0  0  0  0  0  0  0  0  0  0  0  0
  -23.0766    1.4172   26.9098 C   0  0  0  0  0  0  0  0  0  0  0  0
  -23.4926    2.2323   27.9321 C   0  0  0  0  0  0  0  0  0  0  0  0
  -24.3005    0.4004   29.0061 C   0  0  0  0  0  0  0  0  0  0  0  0
  -23.3245    0.0522   26.9811 C   0  0  0  0  0  0  0  0  0  0  0  0
  -22.4235    1.9710   25.8605 O   0  0  0  0  0  0  0  0  0  0  0  0
  -20.2799    2.4477   24.9106 C   0  0  0  0  0  0  0  0  0  0  0  0
  -19.0268    3.0476   25.0464 C   0  0  0  0  0  0  0  0  0  0  0  0
  -18.7603    3.7588   26.1901 C   0  0  0  0  0  0  0  0  0  0  0  0
  -19.6504    3.9093   27.2272 C   0  0  0  0  0  0  0  0  0  0  0  0
  -20.8819    3.2950   27.1051 C   0  0  0  0  0  0  0  0  0  0  0  0
  -21.1663    2.5422   25.9864 C   0  0  0  0  0  0  0  0  0  0  0  0
  -17.5539    4.3501   26.3288 F   0  0  0  0  0  0  0  0  0  0  0  0
  -21.2584    2.2982   22.5926 N   0  0  0  0  0  0  0  0  0  0  0  0
  -20.4825    0.4926   23.6233 O   0  0  0  0  0  0  0  0  0  0  0  0
  -20.6949    1.6967   23.6558 C   0  0  0  0  0  0  0  0  0  0  0  0
  -20.6171    4.6277   22.9660 C   0  0  0  0  0  0  0  0  0  0  0  0
  -21.7437    3.6839   22.6081 C   0  0  0  0  0  0  0  0  0  0  0  0
  -22.9536    3.8241   23.4958 C   0  0  0  0  0  0  0  0  0  0  0  0
  -21.5152    1.5626   21.3456 C   0  0  0  0  0  0  0  0  0  0  0  0
  -20.2750    1.2879   20.5480 C   0  0  0  0  0  0  0  0  0  0  0  0
  -19.3425   -4.6711   23.0749 C   0  0  0  0  0  0  0  0  0  0  0  0
  -19.2677   -6.0145   22.3482 C   0  0  1  0  0  0  0  0  0  0  0  0
  -19.7885   -5.9404   20.9055 C   0  0  0  0  0  0  0  0  0  0  0  0
  -19.6833   -7.2688   20.1752 C   0  0  0  0  0  0  0  0  0  0  0  0
  -17.8541   -6.5904   22.3930 C   0  0  0  0  0  0  0  0  0  0  0  0
  -17.7954   -7.9444   21.7011 C   0  0  0  0  0  0  0  0  0  0  0  0
  -18.2826   -7.8347   20.2653 C   0  0  1  0  0  0  0  0  0  0  0  0
  -18.2254   -9.1683   19.6417 N   0  0  0  0  0  0  0  0  0  0  0  0
  -18.4488   -9.0272   18.6565 H   0  0  0  0  0  0  0  0  0  0  0  0
  -19.1445  -10.4219   20.1352 S   0  0  0  0  0  0  0  0  0  0  0  0
  -20.2568   -9.8179   20.8046 O   0  0  0  0  0  0  0  0  0  0  0  0
  -19.3808  -11.2429   18.9816 O   0  0  0  0  0  0  0  0  0  0  0  0
  -18.1535  -11.3170   21.3194 C   0  0  0  0  0  0  0  0  0  0  0  0
  -18.4645  -12.7995   21.3568 C   0  0  0  0  0  0  0  0  0  0  0  0
 27 28  1  0
 24 30  1  0
 24 26  1  0
 41 42  2  0
 41 43  2  0
 41 44  1  0
 24 28  1  0
 28 29  1  0
 10 14  2  0
 16 12  1  0
 11 15  2  0
 30 31  1  0
  1  3  1  0
  1  4  1  0
  2 32  1  0
 25 26  2  0
 26 17  1  0
 41 39  1  0
 17 18  2  0
 17 22  1  0
 18 19  1  0
 19 20  2  0
 19 23  1  0
 20 21  1  0
 21 22  2  0
 16 22  1  0
 12 13  2  0
 12 15  1  0
 10 13  1  0
 11 14  1  0
  1 15  1  0
  3  5  1  0
  4  5  1  0
  5  6  1  0
  5  8  1  0
  6  7  1  0
  2  7  1  0
  8  9  1  0
  2  9  1  0
 33 32  1  6
 33 34  1  0
 33 36  1  0
 34 35  1  0
 35 38  1  0
 36 37  1  0
 37 38  1  0
 38 39  1  1
 44 45  1  0
 39 40  1  0
M  END
>  <minimizedAffinity>  (1) 
-8.58485

>  <CNNscore>  (1) 
0.6876454353

>  <CNNaffinity>  (1) 
7.5751838684

>  <CNN_VS>  (1) 
5.2090406418

>  <CNNaffinity_variance>  (1) 
0.2412942201

$$$$
