7uj4
     RDKit          3D

 45 49  0  0  0  0  0  0  0  0999 V2000
  -22.2653   -0.8390   22.9962 N   0  0  0  0  0  0  0  0  0  0  0  0
  -19.8367   -5.0707   23.1239 N   0  0  0  0  0  0  0  0  0  0  0  0
  -21.1763   -1.5971   22.4034 C   0  0  0  0  0  0  0  0  0  0  0  0
  -22.8170   -1.8299   23.9129 C   0  0  0  0  0  0  0  0  0  0  0  0
  -21.6091   -2.7350   23.4262 C   0  0  0  0  0  0  0  0  0  0  0  0
  -20.5435   -3.0770   24.4668 C   0  0  0  0  0  0  0  0  0  0  0  0
  -19.3889   -3.8197   23.8344 C   0  0  0  0  0  0  0  0  0  0  0  0
  -22.0589   -4.0285   22.7527 C   0  0  0  0  0  0  0  0  0  0  0  0
  -20.9102   -4.7763   22.1223 C   0  0  0  0  0  0  0  0  0  0  0  0
  -23.0198    3.1350   22.4916 N   0  0  0  0  0  0  0  0  0  0  0  0
  -23.5179    0.8560   22.0454 N   0  0  0  0  0  0  0  0  0  0  0  0
  -21.7841    1.4429   23.5185 C   0  0  0  0  0  0  0  0  0  0  0  0
  -22.0512    2.7722   23.3081 C   0  0  0  0  0  0  0  0  0  0  0  0
  -23.7543    2.1674   21.9312 C   0  0  0  0  0  0  0  0  0  0  0  0
  -22.5501    0.4819   22.8708 C   0  0  0  0  0  0  0  0  0  0  0  0
  -20.7818    1.1065   24.3649 O   0  0  0  0  0  0  0  0  0  0  0  0
  -21.0002    1.6657   26.6810 C   0  0  0  0  0  0  0  0  0  0  0  0
  -20.6023    2.4667   27.7527 C   0  0  0  0  0  0  0  0  0  0  0  0
  -19.6088    3.3917   27.5471 C   0  0  0  0  0  0  0  0  0  0  0  0
  -18.9830    3.5926   26.3394 C   0  0  0  0  0  0  0  0  0  0  0  0
  -19.3934    2.8179   25.2716 C   0  0  0  0  0  0  0  0  0  0  0  0
  -20.4144    1.9072   25.4358 C   0  0  0  0  0  0  0  0  0  0  0  0
  -19.2103    4.1668   28.5789 F   0  0  0  0  0  0  0  0  0  0  0  0
  -23.3647    0.7932   26.7131 N   0  0  0  0  0  0  0  0  0  0  0  0
  -21.6409   -0.5677   27.0305 O   0  0  0  0  0  0  0  0  0  0  0  0
  -22.0429    0.5688   26.8234 C   0  0  0  0  0  0  0  0  0  0  0  0
  -24.9965    2.2165   25.5778 C   0  0  0  0  0  0  0  0  0  0  0  0
  -23.9585    2.1356   26.6751 C   0  0  0  0  0  0  0  0  0  0  0  0
  -22.8926    3.1967   26.5773 C   0  0  0  0  0  0  0  0  0  0  0  0
  -24.3311   -0.3150   26.7164 C   0  0  0  0  0  0  0  0  0  0  0  0
  -24.8953   -0.6113   28.0742 C   0  0  0  0  0  0  0  0  0  0  0  0
  -18.6864   -5.7052   22.4045 C   0  0  0  0  0  0  0  0  0  0  0  0
  -18.9470   -7.1502   21.9776 C   0  0  1  0  0  0  0  0  0  0  0  0
  -17.7467   -7.7845   21.2599 C   0  0  0  0  0  0  0  0  0  0  0  0
  -17.9965   -9.2304   20.8654 C   0  0  0  0  0  0  0  0  0  0  0  0
  -19.3938   -8.0052   23.1614 C   0  0  0  0  0  0  0  0  0  0  0  0
  -19.6877   -9.4323   22.7224 C   0  0  0  0  0  0  0  0  0  0  0  0
  -18.4722  -10.0470   22.0474 C   0  0  1  0  0  0  0  0  0  0  0  0
  -18.8072  -11.4179   21.6243 N   0  0  0  0  0  0  0  0  0  0  0  0
  -19.8114  -11.5196   21.7715 H   0  0  0  0  0  0  0  0  0  0  0  0
  -18.1211  -12.7445   22.2796 S   0  0  0  0  0  0  0  0  0  0  0  0
  -16.8126  -12.8025   21.7008 O   0  0  0  0  0  0  0  0  0  0  0  0
  -18.2541  -12.6203   23.7034 O   0  0  0  0  0  0  0  0  0  0  0  0
  -19.0876  -14.1293   21.7021 C   0  0  0  0  0  0  0  0  0  0  0  0
  -18.7133  -14.5748   20.3030 C   0  0  0  0  0  0  0  0  0  0  0  0
 27 28  1  0
 24 30  1  0
 24 26  1  0
 41 42  2  0
 41 43  2  0
 41 44  1  0
 24 28  1  0
 28 29  1  0
 10 14  2  0
 16 12  1  0
 11 15  2  0
 30 31  1  0
  1  3  1  0
  1  4  1  0
  2 32  1  0
 25 26  2  0
 26 17  1  0
 41 39  1  0
 17 18  2  0
 17 22  1  0
 18 19  1  0
 19 20  2  0
 19 23  1  0
 20 21  1  0
 21 22  2  0
 16 22  1  0
 12 13  2  0
 12 15  1  0
 10 13  1  0
 11 14  1  0
  1 15  1  0
  3  5  1  0
  4  5  1  0
  5  6  1  0
  5  8  1  0
  6  7  1  0
  2  7  1  0
  8  9  1  0
  2  9  1  0
 33 32  1  1
 33 34  1  0
 33 36  1  0
 34 35  1  0
 35 38  1  0
 36 37  1  0
 37 38  1  0
 38 39  1  6
 44 45  1  0
 39 40  1  0
M  END
>  <minimizedAffinity>  (1) 
-8.16153

>  <CNNscore>  (1) 
0.6581614614

>  <CNNaffinity>  (1) 
7.3235034943

>  <CNN_VS>  (1) 
4.8200478554

>  <CNNaffinity_variance>  (1) 
0.1785272509

$$$$
