ziftomenib.sdf
     RDKit          3D

 51 56  0  0  0  0  0  0  0  0999 V2000
  -23.2901   -0.8657   18.3665 C   0  0  0  0  0  0  0  0  0  0  0  0
  -21.1764    1.2798   23.6974 C   0  0  0  0  0  0  0  0  0  0  0  0
  -22.5336    1.4178   23.5171 N   0  0  0  0  0  0  0  0  0  0  0  0
  -20.6736    0.6388   22.5876 C   0  0  0  0  0  0  0  0  0  0  0  0
  -21.7492    0.3859   21.6854 C   0  0  0  0  0  0  0  0  0  0  0  0
  -22.9063    0.8828   22.2952 C   0  0  0  0  0  0  0  0  0  0  0  0
  -24.1610    0.7962   21.6809 C   0  0  0  0  0  0  0  0  0  0  0  0
  -24.2302    0.2075   20.4194 C   0  0  0  0  0  0  0  0  0  0  0  0
  -23.0929   -0.2927   19.7647 C   0  0  0  0  0  0  0  0  0  0  0  0
  -21.8223   -0.2170   20.3973 C   0  0  0  0  0  0  0  0  0  0  0  0
  -20.5923   -0.7519   19.7116 C   0  0  0  0  0  0  0  0  0  0  0  0
  -19.9015    2.0748   25.7967 N   0  0  0  0  0  0  0  0  0  0  0  0
  -20.4469    1.7345   24.8323 C   0  0  0  0  0  0  0  0  0  0  0  0
  -23.4272    2.1096   24.4440 C   0  0  0  0  0  0  0  0  0  0  0  0
  -24.1174    3.3732   23.8515 C   0  0  2  0  0  0  0  0  0  0  0  0
  -23.3041    4.6204   24.2535 C   0  0  0  0  0  0  0  0  0  0  0  0
  -25.5267    3.5560   24.2892 N   0  0  0  0  0  0  0  0  0  0  0  0
  -26.3135    4.4250   23.3743 C   0  0  0  0  0  0  0  0  0  0  0  0
  -27.3805    3.6998   22.5263 C   0  0  0  0  0  0  0  0  0  0  0  0
  -28.3438    2.9725   23.3905 N   0  0  0  0  0  0  0  0  0  0  0  0
  -27.7804    2.4764   24.6703 C   0  0  0  0  0  0  0  0  0  0  0  0
  -26.2525    2.3021   24.5736 C   0  0  0  0  0  0  0  0  0  0  0  0
  -29.5483    2.0713   22.6352 S   0  0  0  0  0  0  0  0  0  0  0  0
  -28.9307    0.8950   22.0615 O   0  0  0  0  0  0  0  0  0  0  0  0
  -30.5620    1.5421   24.0046 C   0  0  0  0  0  0  0  0  0  0  0  0
  -30.3372    2.9770   21.8275 O   0  0  0  0  0  0  0  0  0  0  0  0
  -24.1965   -2.0260   18.3431 N   0  0  0  0  0  0  0  0  0  0  0  0
  -23.8218   -3.0796   19.2953 C   0  0  0  0  0  0  0  0  0  0  0  0
  -22.5995   -3.8950   18.8719 C   0  0  0  0  0  0  0  0  0  0  0  0
  -22.7679   -4.4627   17.4581 C   0  0  0  0  0  0  0  0  0  0  0  0
  -23.1508   -3.3445   16.4838 C   0  0  0  0  0  0  0  0  0  0  0  0
  -24.3666   -2.5756   16.9933 C   0  0  0  0  0  0  0  0  0  0  0  0
  -21.5012   -5.0838   17.0595 N   0  0  0  0  0  0  0  0  0  0  0  0
  -20.6938   -4.5434   16.9006 H   0  0  0  0  0  0  0  0  0  0  0  0
  -21.4857   -6.4716   16.9140 C   0  0  0  0  0  0  0  0  0  0  0  0
  -20.9960   -7.3182   17.9249 C   0  0  0  0  0  0  0  0  0  0  0  0
  -20.4437   -7.0839   19.2314 C   0  0  0  0  0  0  0  0  0  0  0  0
  -20.0881   -8.2482   19.8837 C   0  0  0  0  0  0  0  0  0  0  0  0
  -20.4237   -9.6257   18.9221 S   0  0  0  0  0  0  0  0  0  0  0  0
  -21.0342   -8.6719   17.6478 C   0  0  0  0  0  0  0  0  0  0  0  0
  -21.4880   -9.2459   16.5259 N   0  0  0  0  0  0  0  0  0  0  0  0
  -21.9421   -8.3719   15.6300 C   0  0  0  0  0  0  0  0  0  0  0  0
  -21.9585   -7.0394   15.7829 N   0  0  0  0  0  0  0  0  0  0  0  0
  -22.4258   -8.9338   14.4525 N   0  0  0  0  0  0  0  0  0  0  0  0
  -22.7043   -7.9650   13.4153 C   0  0  0  0  0  0  0  0  0  0  0  0
  -22.5656   -9.9014   14.3362 H   0  0  0  0  0  0  0  0  0  0  0  0
  -19.4787   -8.4058   21.2489 C   0  0  0  0  0  0  0  0  0  0  0  0
  -18.0577   -7.8782   21.3325 C   0  0  0  0  0  0  0  0  0  0  0  0
  -18.0320   -6.5335   21.4749 F   0  0  0  0  0  0  0  0  0  0  0  0
  -17.3709   -8.4238   22.3586 F   0  0  0  0  0  0  0  0  0  0  0  0
  -17.3839   -8.1723   20.1949 F   0  0  0  0  0  0  0  0  0  0  0  0
 12 13  3  0
 13  2  1  0
  2  3  1  0
  3 14  1  0
 14 15  1  0
 15 17  1  0
 17 18  1  0
 18 19  1  0
 19 20  1  0
 20 23  1  0
 23 24  2  0
 23 25  1  0
 23 26  2  0
 20 21  1  0
 21 22  1  0
 17 22  1  0
 15 16  1  1
  2  4  2  0
  4  5  1  0
  5  6  2  0
  3  6  1  0
  6  7  1  0
  7  8  2  0
  8  9  1  0
  9  1  1  0
  1 27  1  0
 27 28  1  0
 28 29  1  0
 29 30  1  0
 30 33  1  0
 33 35  1  0
 35 36  2  0
 36 37  1  0
 37 38  2  0
 38 47  1  0
 47 48  1  0
 48 49  1  0
 48 50  1  0
 48 51  1  0
 38 39  1  0
 36 40  1  0
 39 40  1  0
 40 41  2  0
 41 42  1  0
 42 44  1  0
 44 45  1  0
 42 43  2  0
 35 43  1  0
 30 31  1  0
 31 32  1  0
 27 32  1  0
  9 10  2  0
  5 10  1  0
 10 11  1  0
 33 34  1  0
 44 46  1  0
M  END
>  <minimizedAffinity>  (1) 
-8.35151

>  <CNNscore>  (1) 
0.1261247993

>  <CNNaffinity>  (1) 
6.3020319939

>  <CNN_VS>  (1) 
0.7948425412

>  <CNNaffinity_variance>  (1) 
1.5711234808

$$$$
