ziftomenib.sdf
     RDKit          3D

 51 56  0  0  0  0  0  0  0  0999 V2000
  -21.0087    1.2471   24.4609 C   0  0  0  0  0  0  0  0  0  0  0  0
  -23.4384    3.4617   29.6263 C   0  0  0  0  0  0  0  0  0  0  0  0
  -24.3324    2.8301   28.7925 N   0  0  0  0  0  0  0  0  0  0  0  0
  -22.1948    3.3765   29.0420 C   0  0  0  0  0  0  0  0  0  0  0  0
  -22.3245    2.6848   27.8012 C   0  0  0  0  0  0  0  0  0  0  0  0
  -23.6770    2.3506   27.6706 C   0  0  0  0  0  0  0  0  0  0  0  0
  -24.1620    1.6536   26.5580 C   0  0  0  0  0  0  0  0  0  0  0  0
  -23.2541    1.3077   25.5585 C   0  0  0  0  0  0  0  0  0  0  0  0
  -21.8906    1.6341   25.6418 C   0  0  0  0  0  0  0  0  0  0  0  0
  -21.3982    2.3289   26.7799 C   0  0  0  0  0  0  0  0  0  0  0  0
  -19.9382    2.6838   26.8879 C   0  0  0  0  0  0  0  0  0  0  0  0
  -24.0708    4.5434   31.8834 N   0  0  0  0  0  0  0  0  0  0  0  0
  -23.7675    4.0898   30.8609 C   0  0  0  0  0  0  0  0  0  0  0  0
  -25.7741    2.7603   29.0225 C   0  0  0  0  0  0  0  0  0  0  0  0
  -26.5143    1.6998   28.1555 C   0  0  2  0  0  0  0  0  0  0  0  0
  -27.7934    2.3358   27.5740 C   0  0  0  0  0  0  0  0  0  0  0  0
  -26.8847    0.4637   28.8945 N   0  0  0  0  0  0  0  0  0  0  0  0
  -26.4018    0.4585   30.3010 C   0  0  0  0  0  0  0  0  0  0  0  0
  -27.4962    0.6211   31.3778 C   0  0  0  0  0  0  0  0  0  0  0  0
  -28.5265   -0.4406   31.2548 N   0  0  0  0  0  0  0  0  0  0  0  0
  -28.7466   -0.9376   29.8742 C   0  0  0  0  0  0  0  0  0  0  0  0
  -28.3173    0.1124   28.8313 C   0  0  0  0  0  0  0  0  0  0  0  0
  -29.8349   -0.3888   32.3125 S   0  0  0  0  0  0  0  0  0  0  0  0
  -29.6419    0.7339   33.2049 O   0  0  0  0  0  0  0  0  0  0  0  0
  -31.1999    0.0018   31.2322 C   0  0  0  0  0  0  0  0  0  0  0  0
  -30.0451   -1.7274   32.8215 O   0  0  0  0  0  0  0  0  0  0  0  0
  -21.7640    0.6332   23.3559 N   0  0  0  0  0  0  0  0  0  0  0  0
  -22.4740   -0.5928   23.7435 C   0  0  0  0  0  0  0  0  0  0  0  0
  -21.5628   -1.8062   23.9323 C   0  0  0  0  0  0  0  0  0  0  0  0
  -20.6839   -2.0434   22.6992 C   0  0  0  0  0  0  0  0  0  0  0  0
  -19.9494   -0.7537   22.3202 C   0  0  0  0  0  0  0  0  0  0  0  0
  -20.9319    0.4042   22.1692 C   0  0  0  0  0  0  0  0  0  0  0  0
  -19.7276   -3.1084   23.0157 N   0  0  0  0  0  0  0  0  0  0  0  0
  -18.7572   -2.9683   22.9262 H   0  0  0  0  0  0  0  0  0  0  0  0
  -20.2477   -4.3289   23.4487 C   0  0  0  0  0  0  0  0  0  0  0  0
  -19.8195   -5.5530   22.9042 C   0  0  0  0  0  0  0  0  0  0  0  0
  -18.8606   -5.9055   21.8927 C   0  0  0  0  0  0  0  0  0  0  0  0
  -18.7738   -7.2678   21.6827 C   0  0  0  0  0  0  0  0  0  0  0  0
  -19.8466   -8.1234   22.7082 S   0  0  0  0  0  0  0  0  0  0  0  0
  -20.4209   -6.6853   23.4209 C   0  0  0  0  0  0  0  0  0  0  0  0
  -21.3573   -6.7274   24.3777 N   0  0  0  0  0  0  0  0  0  0  0  0
  -21.6937   -5.5261   24.8429 C   0  0  0  0  0  0  0  0  0  0  0  0
  -21.1823   -4.3591   24.4238 N   0  0  0  0  0  0  0  0  0  0  0  0
  -22.6620   -5.5320   25.8422 N   0  0  0  0  0  0  0  0  0  0  0  0
  -23.7893   -4.6686   25.5671 C   0  0  0  0  0  0  0  0  0  0  0  0
  -22.5868   -6.0739   26.6607 H   0  0  0  0  0  0  0  0  0  0  0  0
  -17.8979   -8.0097   20.7120 C   0  0  0  0  0  0  0  0  0  0  0  0
  -18.5315   -8.1746   19.3423 C   0  0  0  0  0  0  0  0  0  0  0  0
  -17.5989   -8.2307   18.3643 F   0  0  0  0  0  0  0  0  0  0  0  0
  -19.2924   -9.2868   19.2631 F   0  0  0  0  0  0  0  0  0  0  0  0
  -19.3332   -7.1176   19.0696 F   0  0  0  0  0  0  0  0  0  0  0  0
 12 13  3  0
 13  2  1  0
  2  3  1  0
  3 14  1  0
 14 15  1  0
 15 17  1  0
 17 18  1  0
 18 19  1  0
 19 20  1  0
 20 23  1  0
 23 24  2  0
 23 25  1  0
 23 26  2  0
 20 21  1  0
 21 22  1  0
 17 22  1  0
 15 16  1  1
  2  4  2  0
  4  5  1  0
  5  6  2  0
  3  6  1  0
  6  7  1  0
  7  8  2  0
  8  9  1  0
  9  1  1  0
  1 27  1  0
 27 28  1  0
 28 29  1  0
 29 30  1  0
 30 33  1  0
 33 35  1  0
 35 36  2  0
 36 37  1  0
 37 38  2  0
 38 47  1  0
 47 48  1  0
 48 49  1  0
 48 50  1  0
 48 51  1  0
 38 39  1  0
 36 40  1  0
 39 40  1  0
 40 41  2  0
 41 42  1  0
 42 44  1  0
 44 45  1  0
 42 43  2  0
 35 43  1  0
 30 31  1  0
 31 32  1  0
 27 32  1  0
  9 10  2  0
  5 10  1  0
 10 11  1  0
 33 34  1  0
 44 46  1  0
M  END
>  <minimizedAffinity>  (1) 
-9.49997

>  <CNNscore>  (1) 
0.1050946563

>  <CNNaffinity>  (1) 
7.0242180824

>  <CNN_VS>  (1) 
0.7382077575

>  <CNNaffinity_variance>  (1) 
0.6181072593

$$$$
