ziftomenib.sdf
     RDKit          3D

 51 56  0  0  0  0  0  0  0  0999 V2000
  -20.1711    1.6323   24.7847 C   0  0  0  0  0  0  0  0  0  0  0  0
  -23.1962    3.5020   29.7689 C   0  0  0  0  0  0  0  0  0  0  0  0
  -23.8356    2.5276   29.0374 N   0  0  0  0  0  0  0  0  0  0  0  0
  -21.9913    3.7584   29.1543 C   0  0  0  0  0  0  0  0  0  0  0  0
  -21.8876    2.9290   27.9984 C   0  0  0  0  0  0  0  0  0  0  0  0
  -23.0582    2.1641   27.9503 C   0  0  0  0  0  0  0  0  0  0  0  0
  -23.2891    1.2292   26.9345 C   0  0  0  0  0  0  0  0  0  0  0  0
  -22.3164    1.0864   25.9463 C   0  0  0  0  0  0  0  0  0  0  0  0
  -21.1328    1.8424   25.9479 C   0  0  0  0  0  0  0  0  0  0  0  0
  -20.8942    2.7803   26.9890 C   0  0  0  0  0  0  0  0  0  0  0  0
  -19.6285    3.5969   27.0088 C   0  0  0  0  0  0  0  0  0  0  0  0
  -24.1886    4.6501   31.8573 N   0  0  0  0  0  0  0  0  0  0  0  0
  -23.7132    4.1229   30.9411 C   0  0  0  0  0  0  0  0  0  0  0  0
  -25.1771    2.0223   29.3229 C   0  0  0  0  0  0  0  0  0  0  0  0
  -25.2362    0.5017   29.6525 C   0  0  2  0  0  0  0  0  0  0  0  0
  -26.0659   -0.2121   28.5659 C   0  0  0  0  0  0  0  0  0  0  0  0
  -25.8199    0.1922   30.9846 N   0  0  0  0  0  0  0  0  0  0  0  0
  -26.6331    1.3072   31.5383 C   0  0  0  0  0  0  0  0  0  0  0  0
  -28.1577    1.0657   31.5649 C   0  0  0  0  0  0  0  0  0  0  0  0
  -28.4900   -0.1570   32.3385 N   0  0  0  0  0  0  0  0  0  0  0  0
  -27.4525   -1.2171   32.3032 C   0  0  0  0  0  0  0  0  0  0  0  0
  -26.5631   -1.0818   31.0522 C   0  0  0  0  0  0  0  0  0  0  0  0
  -30.1079   -0.6131   32.4260 S   0  0  0  0  0  0  0  0  0  0  0  0
  -30.8526    0.4931   32.9881 O   0  0  0  0  0  0  0  0  0  0  0  0
  -30.5684   -0.7640   30.7090 C   0  0  0  0  0  0  0  0  0  0  0  0
  -30.1635   -1.9342   33.0147 O   0  0  0  0  0  0  0  0  0  0  0  0
  -20.3032    2.6584   23.7368 N   0  0  0  0  0  0  0  0  0  0  0  0
  -21.4666    2.4556   22.8636 C   0  0  0  0  0  0  0  0  0  0  0  0
  -21.3029    1.3089   21.8652 C   0  0  0  0  0  0  0  0  0  0  0  0
  -20.0168    1.4601   21.0453 C   0  0  0  0  0  0  0  0  0  0  0  0
  -18.8186    1.6627   21.9779 C   0  0  0  0  0  0  0  0  0  0  0  0
  -19.0759    2.8128   22.9475 C   0  0  0  0  0  0  0  0  0  0  0  0
  -19.8432    0.2495   20.2371 N   0  0  0  0  0  0  0  0  0  0  0  0
  -18.9481   -0.0738   19.9851 H   0  0  0  0  0  0  0  0  0  0  0  0
  -20.9975   -0.4264   19.8391 C   0  0  0  0  0  0  0  0  0  0  0  0
  -21.3990   -1.6301   20.4460 C   0  0  0  0  0  0  0  0  0  0  0  0
  -20.8541   -2.4349   21.5053 C   0  0  0  0  0  0  0  0  0  0  0  0
  -21.6070   -3.5625   21.7683 C   0  0  0  0  0  0  0  0  0  0  0  0
  -22.9742   -3.6496   20.7398 S   0  0  0  0  0  0  0  0  0  0  0  0
  -22.5589   -2.1964   19.9514 C   0  0  0  0  0  0  0  0  0  0  0  0
  -23.3266   -1.7144   18.9652 N   0  0  0  0  0  0  0  0  0  0  0  0
  -22.8785   -0.5681   18.4573 C   0  0  0  0  0  0  0  0  0  0  0  0
  -21.7707    0.0768   18.8520 N   0  0  0  0  0  0  0  0  0  0  0  0
  -23.6545   -0.0356   17.4323 N   0  0  0  0  0  0  0  0  0  0  0  0
  -23.6802   -0.8495   16.2370 C   0  0  0  0  0  0  0  0  0  0  0  0
  -24.1410    0.8165   17.5133 H   0  0  0  0  0  0  0  0  0  0  0  0
  -21.3555   -4.6369   22.7893 C   0  0  0  0  0  0  0  0  0  0  0  0
  -19.9620   -5.2321   22.6983 C   0  0  0  0  0  0  0  0  0  0  0  0
  -19.5922   -5.4434   21.4146 F   0  0  0  0  0  0  0  0  0  0  0  0
  -19.0324   -4.4451   23.2805 F   0  0  0  0  0  0  0  0  0  0  0  0
  -19.9256   -6.4313   23.3270 F   0  0  0  0  0  0  0  0  0  0  0  0
 12 13  3  0
 13  2  1  0
  2  3  1  0
  3 14  1  0
 14 15  1  0
 15 17  1  0
 17 18  1  0
 18 19  1  0
 19 20  1  0
 20 23  1  0
 23 24  2  0
 23 25  1  0
 23 26  2  0
 20 21  1  0
 21 22  1  0
 17 22  1  0
 15 16  1  6
  2  4  2  0
  4  5  1  0
  5  6  2  0
  3  6  1  0
  6  7  1  0
  7  8  2  0
  8  9  1  0
  9  1  1  0
  1 27  1  0
 27 28  1  0
 28 29  1  0
 29 30  1  0
 30 33  1  0
 33 35  1  0
 35 36  2  0
 36 37  1  0
 37 38  2  0
 38 47  1  0
 47 48  1  0
 48 49  1  0
 48 50  1  0
 48 51  1  0
 38 39  1  0
 36 40  1  0
 39 40  1  0
 40 41  2  0
 41 42  1  0
 42 44  1  0
 44 45  1  0
 42 43  2  0
 35 43  1  0
 30 31  1  0
 31 32  1  0
 27 32  1  0
  9 10  2  0
  5 10  1  0
 10 11  1  0
 33 34  1  0
 44 46  1  0
M  END
>  <minimizedAffinity>  (1) 
-9.25857

>  <CNNscore>  (1) 
0.1228372231

>  <CNNaffinity>  (1) 
7.2000460625

>  <CNN_VS>  (1) 
0.8844336867

>  <CNNaffinity_variance>  (1) 
1.1033428907

$$$$
