7uj4
     RDKit          3D

 44 48  0  0  0  0  0  0  0  0999 V2000
  -24.5997    0.6033   22.8603 C   0  0  0  0  0  0  0  0  0  0  0  0
  -23.5493    1.4436   24.9140 N   0  0  0  0  0  0  0  0  0  0  0  0
  -23.7680    0.2902   26.8678 O   0  0  0  0  0  0  0  0  0  0  0  0
  -19.5003  -12.2032   22.9680 S   0  0  1  0  0  6  0  0  0  0  0  0
  -24.6580    0.7077   24.3543 C   0  0  1  0  0  0  0  0  0  0  0  0
  -17.7919    3.3643   23.4487 N   0  0  0  0  0  0  0  0  0  0  0  0
  -20.4722    1.5116   25.0441 O   0  0  0  0  0  0  0  0  0  0  0  0
  -25.9429    1.4365   24.7730 C   0  0  0  0  0  0  0  0  0  0  0  0
  -18.1174    1.3623   22.3581 N   0  0  0  0  0  0  0  0  0  0  0  0
  -18.6273  -12.6312   21.8218 O   0  0  0  0  0  0  0  0  0  0  0  0
  -22.8736    2.4539   24.1114 C   0  0  0  0  0  0  0  0  0  0  0  0
  -19.7918   -0.2430   23.0444 N   0  0  0  0  0  0  0  0  0  0  0  0
  -18.9884  -12.8859   24.2039 O   0  0  0  0  0  0  0  0  0  0  0  0
  -23.2236    3.8538   24.5281 C   0  0  0  0  0  0  0  0  0  0  0  0
  -19.4589   -5.1213   23.5725 N   0  0  0  0  0  0  0  0  0  0  0  0
  -23.1456    1.1665   26.2447 C   0  0  0  0  0  0  0  0  0  0  0  0
  -19.3494  -10.5070   23.1886 N   0  0  0  0  0  0  0  0  0  0  0  0
  -22.0381    1.9076   26.8144 C   0  0  0  0  0  0  0  0  0  0  0  0
  -22.2169    2.5124   28.0631 C   0  0  0  0  0  0  0  0  0  0  0  0
  -21.2267    3.2064   28.7066 C   0  0  0  0  0  0  0  0  0  0  0  0
  -19.9720    3.3394   28.1268 C   0  0  0  0  0  0  0  0  0  0  0  0
  -19.7828    2.7538   26.9067 C   0  0  0  0  0  0  0  0  0  0  0  0
  -20.7989    2.0433   26.2475 C   0  0  0  0  0  0  0  0  0  0  0  0
  -19.4502    1.9031   24.2080 C   0  0  0  0  0  0  0  0  0  0  0  0
  -18.7661    3.1002   24.3247 C   0  0  0  0  0  0  0  0  0  0  0  0
  -17.4581    2.5124   22.4671 C   0  0  0  0  0  0  0  0  0  0  0  0
  -19.1236    0.9941   23.1940 C   0  0  0  0  0  0  0  0  0  0  0  0
  -19.8505   -1.2277   21.9821 C   0  0  0  0  0  0  0  0  0  0  0  0
  -20.6790   -1.0984   23.7939 C   0  0  0  0  0  0  0  0  0  0  0  0
  -20.0271   -2.2644   23.0862 C   0  0  2  0  0  0  0  0  0  0  0  0
  -18.7656   -2.7680   23.7158 C   0  0  0  0  0  0  0  0  0  0  0  0
  -19.0760   -4.0397   24.4813 C   0  0  0  0  0  0  0  0  0  0  0  0
  -20.8880   -3.4321   22.7437 C   0  0  0  0  0  0  0  0  0  0  0  0
  -19.9126   -4.5824   22.3617 C   0  0  0  0  0  0  0  0  0  0  0  0
  -18.4724   -6.1112   23.6353 C   0  0  0  0  0  0  0  0  0  0  0  0
  -18.8521   -7.5278   23.3038 C   0  0  1  0  0  0  0  0  0  0  0  0
  -20.1908   -7.8476   23.8860 C   0  0  0  0  0  0  0  0  0  0  0  0
  -21.0620   -8.7430   23.0835 C   0  0  0  0  0  0  0  0  0  0  0  0
  -18.5773   -7.8631   21.9123 C   0  0  0  0  0  0  0  0  0  0  0  0
  -19.4185   -8.9669   21.3253 C   0  0  0  0  0  0  0  0  0  0  0  0
  -20.2003   -9.7396   22.3379 C   0  0  1  0  0  0  0  0  0  0  0  0
  -21.1595  -12.6879   22.5909 C   0  0  0  0  0  0  0  0  0  0  0  0
  -21.9521  -12.7907   23.8547 C   0  0  0  0  0  0  0  0  0  0  0  0
  -21.4063    3.7922   29.9230 F   0  0  0  0  0  0  0  0  0  0  0  0
  5  1  1  6
  2 11  1  0
  2 16  1  0
  4 10  2  0
  4 13  2  0
  4 42  1  6
  2  5  1  0
  5  8  1  0
  6 26  2  0
  7 24  1  0
  9 27  2  0
 11 14  1  0
 12 28  1  0
 12 29  1  0
 15 35  1  0
  3 16  2  0
 16 18  1  0
  4 17  1  0
 18 19  2  0
 18 23  1  0
 19 20  1  0
 20 21  2  0
 20 44  1  0
 21 22  1  0
 22 23  2  0
  7 23  1  0
 24 25  2  0
 24 27  1  0
  6 25  1  0
  9 26  1  0
 12 27  1  0
 30 28  1  6
 29 30  1  0
 30 31  1  0
 30 33  1  0
 31 32  1  0
 15 32  1  0
 33 34  1  0
 15 34  1  0
 36 35  1  6
 36 37  1  0
 36 39  1  0
 37 38  1  0
 38 41  1  0
 39 40  1  0
 40 41  1  0
 41 17  1  1
 42 43  1  0
M  END
$$$$
