ziftomenib.sdf
     RDKit          3D

 49 54  0  0  1  0  0  0  0  0999 V2000
  -20.4545  -12.3325   24.0482 N   0  0  0  0  0  0  0  0  0  0  0  0
  -20.5990  -11.2325   23.6896 C   0  0  0  0  0  0  0  0  0  0  0  0
  -20.7684   -9.8925   23.2390 C   0  0  0  0  0  0  0  0  0  0  0  0
  -21.2565   -9.4508   22.0489 N   0  0  0  0  0  0  0  0  0  0  0  0
  -21.7012  -10.3669   21.0297 C   0  0  0  0  0  0  0  0  0  0  0  0
  -20.6264  -11.3315   20.6013 C   0  0  1  0  0  0  0  0  0  0  0  0
  -20.8976  -12.6266   21.1825 N   0  0  0  0  0  0  0  0  0  0  0  0
  -21.9810  -12.6081   22.1122 C   0  0  0  0  0  0  0  0  0  0  0  0
  -23.1173  -13.5230   21.7151 C   0  0  0  0  0  0  0  0  0  0  0  0
  -22.6376  -14.8522   21.5451 N   0  0  0  0  0  0  0  0  0  0  0  0
  -22.4510  -15.7322   22.9887 S   0  0  1  0  0  6  0  0  0  0  0  0
  -22.9228  -14.9615   24.2138 O   0  0  0  0  0  0  0  0  0  0  0  0
  -23.3729  -17.2554   22.8757 C   0  0  0  0  0  0  0  0  0  0  0  0
  -21.0124  -16.1003   23.2526 O   0  0  0  0  0  0  0  0  0  0  0  0
  -21.5732  -14.9500   20.6094 C   0  0  0  0  0  0  0  0  0  0  0  0
  -20.8641  -13.6933   20.2532 C   0  0  0  0  0  0  0  0  0  0  0  0
  -20.5419  -11.3545   19.1166 C   0  0  0  0  0  0  0  0  0  0  0  0
  -20.4318   -8.7802   24.0186 C   0  0  0  0  0  0  0  0  0  0  0  0
  -20.7392   -7.6893   23.2480 C   0  0  0  0  0  0  0  0  0  0  0  0
  -21.2405   -8.1112   22.0515 C   0  0  0  0  0  0  0  0  0  0  0  0
  -21.6228   -7.1586   21.1287 C   0  0  0  0  0  0  0  0  0  0  0  0
  -21.4875   -5.8342   21.4371 C   0  0  0  0  0  0  0  0  0  0  0  0
  -20.9674   -5.3857   22.6741 C   0  0  0  0  0  0  0  0  0  0  0  0
  -20.8300   -3.9250   22.8734 C   0  0  0  0  0  0  0  0  0  0  0  0
  -19.6692   -3.2987   22.4089 N   0  0  0  0  0  0  0  0  0  0  0  0
  -18.4803   -3.2458   23.1554 C   0  0  0  0  0  0  0  0  0  0  0  0
  -18.4479   -2.1928   24.2122 C   0  0  0  0  0  0  0  0  0  0  0  0
  -18.8143   -0.8431   23.6748 C   0  0  2  0  0  0  0  0  0  0  0  0
  -19.1367    0.0631   24.7654 N   0  0  0  0  0  0  0  0  0  0  0  0
  -19.0061    1.4627   24.7344 C   0  0  0  0  0  0  0  0  0  0  0  0
  -19.3183    2.2490   25.8759 C   0  0  0  0  0  0  0  0  0  0  0  0
  -19.7518    1.8041   27.0696 C   0  0  0  0  0  0  0  0  0  0  0  0
  -20.0045    2.7052   28.0474 C   0  0  0  0  0  0  0  0  0  0  0  0
  -20.4883    2.5085   29.4358 C   0  0  0  0  0  0  0  0  0  0  0  0
  -21.7694    3.3074   29.5948 C   0  0  1  0  0  0  0  0  0  0  0  0
  -22.7307    2.8820   28.6774 F   0  0  0  0  0  0  0  0  0  0  0  0
  -22.3074    3.1584   30.8467 F   0  0  0  0  0  0  0  0  0  0  0  0
  -21.5701    4.6390   29.3447 F   0  0  0  0  0  0  0  0  0  0  0  0
  -19.6306    4.2388   27.2968 S   0  0  0  0  0  0  0  0  0  0  0  0
  -19.1497    3.5780   25.6934 C   0  0  0  0  0  0  0  0  0  0  0  0
  -18.7239    4.1778   24.5534 N   0  0  0  0  0  0  0  0  0  0  0  0
  -18.4331    3.3889   23.4780 C   0  0  0  0  0  0  0  0  0  0  0  0
  -17.9937    3.9215   22.2613 N   0  0  0  0  0  0  0  0  0  0  0  0
  -17.6947    2.9878   21.1712 C   0  0  0  0  0  0  0  0  0  0  0  0
  -18.5913    2.0727   23.6307 N   0  0  0  0  0  0  0  0  0  0  0  0
  -19.9842   -0.9062   22.7620 C   0  0  0  0  0  0  0  0  0  0  0  0
  -19.9359   -2.0225   21.7436 C   0  0  0  0  0  0  0  0  0  0  0  0
  -20.5933   -6.3318   23.5833 C   0  0  0  0  0  0  0  0  0  0  0  0
  -20.0880   -5.9627   24.9308 C   0  0  0  0  0  0  0  0  0  0  0  0
  1  2  3  0
  2  3  1  0
  3  4  1  0
  4  5  1  0
  5  6  1  0
  6  7  1  0
  7  8  1  0
  8  9  1  0
  9 10  1  0
 10 11  1  0
 11 12  2  0
 11 13  1  6
 11 14  2  0
 10 15  1  0
 15 16  1  0
  7 16  1  0
  6 17  1  6
  3 18  2  0
 18 19  1  0
 19 20  2  0
  4 20  1  0
 20 21  1  0
 21 22  2  0
 22 23  1  0
 23 24  1  0
 24 25  1  0
 25 26  1  0
 26 27  1  0
 27 28  1  0
 28 29  1  1
 29 30  1  0
 30 31  2  0
 31 32  1  0
 32 33  2  0
 33 34  1  0
 34 35  1  0
 35 36  1  6
 35 37  1  0
 35 38  1  0
 33 39  1  0
 31 40  1  0
 39 40  1  0
 40 41  2  0
 41 42  1  0
 42 43  1  0
 43 44  1  0
 42 45  2  0
 30 45  1  0
 28 46  1  0
 46 47  1  0
 25 47  1  0
 23 48  2  0
 19 48  1  0
 48 49  1  0
M  END
$$$$
