NS-C-142.sdf
     RDKit          3D

 26 29  0  0  0  0  0  0  0  0999 V2000
  -20.9437   -0.5309   21.6300 N   0  0  0  0  0  0  0  0  0  0  0  0
  -21.8933   -0.9763   20.6151 C   0  0  0  0  0  0  0  0  0  0  0  0
  -21.5459   -2.4473   20.4170 C   0  0  0  0  0  0  0  0  0  0  0  0
  -21.1490   -2.9011   21.8171 C   0  0  2  0  0  0  0  0  0  0  0  0
  -20.3940   -1.6718   22.3741 C   0  0  0  0  0  0  0  0  0  0  0  0
  -21.9988    1.5230   22.3725 C   0  0  0  0  0  0  0  0  0  0  0  0
  -21.9279    2.8459   22.8266 C   0  0  0  0  0  0  0  0  0  0  0  0
  -20.6914    3.4506   22.9866 C   0  0  0  0  0  0  0  0  0  0  0  0
  -19.5279    2.7594   22.7045 C   0  0  0  0  0  0  0  0  0  0  0  0
  -19.6126    1.4426   22.2530 C   0  0  0  0  0  0  0  0  0  0  0  0
  -20.8451    0.7770   22.0630 C   0  0  0  0  0  0  0  0  0  0  0  0
  -20.6235    4.7151   23.4216 F   0  0  0  0  0  0  0  0  0  0  0  0
  -18.4515    0.8210   21.9873 F   0  0  0  0  0  0  0  0  0  0  0  0
  -20.2342   -4.8925   22.9303 C   0  0  0  0  0  0  0  0  0  0  0  0
  -20.6260   -4.5406   24.0361 O   0  0  0  0  0  0  0  0  0  0  0  0
  -20.3815   -4.1372   21.7898 N   0  0  0  0  0  0  0  0  0  0  0  0
  -19.9647   -4.4352   20.9491 H   0  0  0  0  0  0  0  0  0  0  0  0
  -19.6000   -6.2290   22.7218 C   0  0  0  0  0  0  0  0  0  0  0  0
  -20.3008   -7.3723   22.8672 C   0  0  0  0  0  0  0  0  0  0  0  0
  -19.6605   -8.5846   22.6299 N   0  0  0  0  0  0  0  0  0  0  0  0
  -18.3348   -8.6995   22.2437 C   0  0  0  0  0  0  0  0  0  0  0  0
  -17.6004   -7.4978   22.0601 C   0  0  0  0  0  0  0  0  0  0  0  0
  -18.2053   -6.3136   22.2817 C   0  0  0  0  0  0  0  0  0  0  0  0
  -20.1184   -9.8694   22.7081 C   0  0  0  0  0  0  0  0  0  0  0  0
  -19.1531  -10.7102   22.4107 N   0  0  0  0  0  0  0  0  0  0  0  0
  -18.0261   -9.9715   22.1165 N   0  0  0  0  0  0  0  0  0  0  0  0
 14 18  1  0
 14 15  2  0
 18 19  2  0
 19 20  1  0
 20 21  1  0
 21 22  1  0
 22 23  2  0
 23 18  1  0
 20 24  1  0
 24 25  2  0
 25 26  1  0
 26 21  2  0
  6  7  2  0
  7  8  1  0
  8  9  2  0
  9 10  1  0
 10 11  2  0
 11  6  1  0
  8 12  1  0
 11  1  1  0
  1  2  1  0
  2  3  1  0
  3  4  1  0
  4  5  1  0
  5  1  1  0
  4 16  1  6
 14 16  1  0
 10 13  1  0
 16 17  1  0
M  END
>  <minimizedAffinity>  (1) 
-6.77119

>  <CNNscore>  (1) 
0.6285856366

>  <CNNaffinity>  (1) 
5.5919575691

>  <CNN_VS>  (1) 
3.5150241852

>  <CNNaffinity_variance>  (1) 
0.0628211573

$$$$
