NS-C-142.sdf
     RDKit          3D

 26 29  0  0  0  0  0  0  0  0999 V2000
  -21.3279   -3.8489   21.8766 N   0  0  0  0  0  0  0  0  0  0  0  0
  -22.7534   -4.0526   21.6389 C   0  0  0  0  0  0  0  0  0  0  0  0
  -23.3772   -2.7149   22.0199 C   0  0  0  0  0  0  0  0  0  0  0  0
  -22.3278   -1.7035   21.5732 C   0  0  2  0  0  0  0  0  0  0  0  0
  -20.9985   -2.4180   21.9107 C   0  0  0  0  0  0  0  0  0  0  0  0
  -20.3717   -5.6767   20.6006 C   0  0  0  0  0  0  0  0  0  0  0  0
  -19.4143   -6.6836   20.4253 C   0  0  0  0  0  0  0  0  0  0  0  0
  -18.4354   -6.8740   21.3875 C   0  0  0  0  0  0  0  0  0  0  0  0
  -18.3940   -6.0779   22.5168 C   0  0  0  0  0  0  0  0  0  0  0  0
  -19.3534   -5.0787   22.6790 C   0  0  0  0  0  0  0  0  0  0  0  0
  -20.3798   -4.8435   21.7359 C   0  0  0  0  0  0  0  0  0  0  0  0
  -17.5195   -7.8362   21.2196 F   0  0  0  0  0  0  0  0  0  0  0  0
  -19.2703   -4.3397   23.7980 F   0  0  0  0  0  0  0  0  0  0  0  0
  -22.7926    0.7076   21.4606 C   0  0  0  0  0  0  0  0  0  0  0  0
  -22.7943    0.7213   20.2359 O   0  0  0  0  0  0  0  0  0  0  0  0
  -22.5137   -0.4099   22.2133 N   0  0  0  0  0  0  0  0  0  0  0  0
  -22.4395   -0.3337   23.1921 H   0  0  0  0  0  0  0  0  0  0  0  0
  -23.1579    1.9222   22.2499 C   0  0  0  0  0  0  0  0  0  0  0  0
  -24.4393    2.1959   22.5699 C   0  0  0  0  0  0  0  0  0  0  0  0
  -24.7117    3.3273   23.3326 N   0  0  0  0  0  0  0  0  0  0  0  0
  -23.7425    4.2018   23.7974 C   0  0  0  0  0  0  0  0  0  0  0  0
  -22.3889    3.9022   23.4886 C   0  0  0  0  0  0  0  0  0  0  0  0
  -22.1056    2.8081   22.7538 C   0  0  0  0  0  0  0  0  0  0  0  0
  -25.8950    3.8381   23.7858 C   0  0  0  0  0  0  0  0  0  0  0  0
  -25.6785    4.9446   24.4611 N   0  0  0  0  0  0  0  0  0  0  0  0
  -24.3185    5.1745   24.4693 N   0  0  0  0  0  0  0  0  0  0  0  0
 14 18  1  0
 14 15  2  0
 18 19  2  0
 19 20  1  0
 20 21  1  0
 21 22  1  0
 22 23  2  0
 23 18  1  0
 20 24  1  0
 24 25  2  0
 25 26  1  0
 26 21  2  0
  6  7  2  0
  7  8  1  0
  8  9  2  0
  9 10  1  0
 10 11  2  0
 11  6  1  0
  8 12  1  0
 11  1  1  0
  1  2  1  0
  2  3  1  0
  3  4  1  0
  4  5  1  0
  5  1  1  0
  4 16  1  1
 14 16  1  0
 10 13  1  0
 16 17  1  0
M  END
>  <minimizedAffinity>  (1) 
-6.84650

>  <CNNscore>  (1) 
0.5202736855

>  <CNNaffinity>  (1) 
5.0797023773

>  <CNN_VS>  (1) 
2.6428353786

>  <CNNaffinity_variance>  (1) 
0.2835822701

$$$$
