NS-C-142.sdf
     RDKit          3D

 26 29  0  0  0  0  0  0  0  0999 V2000
  -21.1888   -0.8191   24.6117 N   0  0  0  0  0  0  0  0  0  0  0  0
  -21.1942   -0.1518   23.3136 C   0  0  0  0  0  0  0  0  0  0  0  0
  -20.5303   -1.1629   22.3857 C   0  0  0  0  0  0  0  0  0  0  0  0
  -21.0154   -2.5021   22.9287 C   0  0  2  0  0  0  0  0  0  0  0  0
  -21.0201   -2.2700   24.4576 C   0  0  0  0  0  0  0  0  0  0  0  0
  -22.7275   -0.7523   26.4855 C   0  0  0  0  0  0  0  0  0  0  0  0
  -23.1871   -0.1791   27.6777 C   0  0  0  0  0  0  0  0  0  0  0  0
  -22.5486    0.9380   28.1922 C   0  0  0  0  0  0  0  0  0  0  0  0
  -21.4611    1.4896   27.5409 C   0  0  0  0  0  0  0  0  0  0  0  0
  -21.0136    0.9090   26.3546 C   0  0  0  0  0  0  0  0  0  0  0  0
  -21.6297   -0.2252   25.7782 C   0  0  0  0  0  0  0  0  0  0  0  0
  -22.9874    1.4856   29.3325 F   0  0  0  0  0  0  0  0  0  0  0  0
  -19.9580    1.4900   25.7602 F   0  0  0  0  0  0  0  0  0  0  0  0
  -20.6919   -4.8822   22.4069 C   0  0  0  0  0  0  0  0  0  0  0  0
  -21.8038   -5.1949   22.8146 O   0  0  0  0  0  0  0  0  0  0  0  0
  -20.1829   -3.6057   22.4739 N   0  0  0  0  0  0  0  0  0  0  0  0
  -19.2488   -3.4377   22.2123 H   0  0  0  0  0  0  0  0  0  0  0  0
  -19.8032   -5.8791   21.7374 C   0  0  0  0  0  0  0  0  0  0  0  0
  -20.0739   -6.3469   20.5016 C   0  0  0  0  0  0  0  0  0  0  0  0
  -19.1912   -7.2518   19.9203 N   0  0  0  0  0  0  0  0  0  0  0  0
  -18.0336   -7.7077   20.5302 C   0  0  0  0  0  0  0  0  0  0  0  0
  -17.7281   -7.1957   21.8193 C   0  0  0  0  0  0  0  0  0  0  0  0
  -18.5699   -6.3151   22.3968 C   0  0  0  0  0  0  0  0  0  0  0  0
  -19.2224   -7.8800   18.7075 C   0  0  0  0  0  0  0  0  0  0  0  0
  -18.1801   -8.6708   18.5831 N   0  0  0  0  0  0  0  0  0  0  0  0
  -17.4282   -8.5618   19.7342 N   0  0  0  0  0  0  0  0  0  0  0  0
 14 18  1  0
 14 15  2  0
 18 19  2  0
 19 20  1  0
 20 21  1  0
 21 22  1  0
 22 23  2  0
 23 18  1  0
 20 24  1  0
 24 25  2  0
 25 26  1  0
 26 21  2  0
  6  7  2  0
  7  8  1  0
  8  9  2  0
  9 10  1  0
 10 11  2  0
 11  6  1  0
  8 12  1  0
 11  1  1  0
  1  2  1  0
  2  3  1  0
  3  4  1  0
  4  5  1  0
  5  1  1  0
  4 16  1  1
 14 16  1  0
 10 13  1  0
 16 17  1  0
M  END
>  <minimizedAffinity>  (1) 
-6.67291

>  <CNNscore>  (1) 
0.6250849962

>  <CNNaffinity>  (1) 
5.7165999413

>  <CNN_VS>  (1) 
3.5733609200

>  <CNNaffinity_variance>  (1) 
0.0711057261

$$$$
