NS-C-142.sdf
     RDKit          3D

 26 29  0  0  0  0  0  0  0  0999 V2000
  -22.3387    3.2551   24.1576 N   0  0  0  0  0  0  0  0  0  0  0  0
  -23.3663    4.2782   24.3233 C   0  0  0  0  0  0  0  0  0  0  0  0
  -24.4690    3.8401   23.3662 C   0  0  0  0  0  0  0  0  0  0  0  0
  -24.4169    2.3190   23.4507 C   0  0  2  0  0  0  0  0  0  0  0  0
  -22.9012    2.0344   23.5655 C   0  0  0  0  0  0  0  0  0  0  0  0
  -19.9400    2.8988   24.1095 C   0  0  0  0  0  0  0  0  0  0  0  0
  -18.6788    2.9449   24.7166 C   0  0  0  0  0  0  0  0  0  0  0  0
  -18.5616    3.4004   26.0201 C   0  0  0  0  0  0  0  0  0  0  0  0
  -19.6773    3.8116   26.7252 C   0  0  0  0  0  0  0  0  0  0  0  0
  -20.9272    3.7606   26.1087 C   0  0  0  0  0  0  0  0  0  0  0  0
  -21.1091    3.2980   24.7854 C   0  0  0  0  0  0  0  0  0  0  0  0
  -17.3558    3.4453   26.6004 F   0  0  0  0  0  0  0  0  0  0  0  0
  -21.9776    4.1654   26.8422 F   0  0  0  0  0  0  0  0  0  0  0  0
  -24.3418    1.1193   21.3067 C   0  0  0  0  0  0  0  0  0  0  0  0
  -23.1219    1.1933   21.2278 O   0  0  0  0  0  0  0  0  0  0  0  0
  -25.0797    1.6895   22.3183 N   0  0  0  0  0  0  0  0  0  0  0  0
  -26.0631    1.6715   22.2759 H   0  0  0  0  0  0  0  0  0  0  0  0
  -25.1367    0.3355   20.3138 C   0  0  0  0  0  0  0  0  0  0  0  0
  -26.1556   -0.4607   20.6973 C   0  0  0  0  0  0  0  0  0  0  0  0
  -26.8767   -1.1418   19.7215 N   0  0  0  0  0  0  0  0  0  0  0  0
  -26.6196   -1.0528   18.3628 C   0  0  0  0  0  0  0  0  0  0  0  0
  -25.5670   -0.1927   17.9512 C   0  0  0  0  0  0  0  0  0  0  0  0
  -24.8598    0.4783   18.8824 C   0  0  0  0  0  0  0  0  0  0  0  0
  -27.9315   -2.0037   19.8258 C   0  0  0  0  0  0  0  0  0  0  0  0
  -28.2878   -2.4256   18.6331 N   0  0  0  0  0  0  0  0  0  0  0  0
  -27.4596   -1.8245   17.7083 N   0  0  0  0  0  0  0  0  0  0  0  0
 14 18  1  0
 14 15  2  0
 18 19  2  0
 19 20  1  0
 20 21  1  0
 21 22  1  0
 22 23  2  0
 23 18  1  0
 20 24  1  0
 24 25  2  0
 25 26  1  0
 26 21  2  0
  6  7  2  0
  7  8  1  0
  8  9  2  0
  9 10  1  0
 10 11  2  0
 11  6  1  0
  8 12  1  0
 11  1  1  0
  1  2  1  0
  2  3  1  0
  3  4  1  0
  4  5  1  0
  5  1  1  0
  4 16  1  6
 14 16  1  0
 10 13  1  0
 16 17  1  0
M  END
>  <minimizedAffinity>  (1) 
-6.44584

>  <CNNscore>  (1) 
0.3870901763

>  <CNNaffinity>  (1) 
5.2818942070

>  <CNN_VS>  (1) 
2.0445692539

>  <CNNaffinity_variance>  (1) 
0.1705784351

$$$$
