NS-C-142.sdf
     RDKit          3D

 25 28  0  0  1  0  0  0  0  0999 V2000
  -20.1422   -1.6608   22.8825 C   0  0  0  0  0  0  0  0  0  0  0  0
  -19.8851   -3.0832   22.6558 C   0  0  0  0  0  0  0  0  0  0  0  0
  -21.3554   -1.2691   22.9503 O   0  0  0  0  0  0  0  0  0  0  0  0
  -18.5816   -3.5518   22.6314 C   0  0  0  0  0  0  0  0  0  0  0  0
  -18.2121   -4.8124   22.4362 N   0  0  0  0  0  0  0  0  0  0  0  0
  -19.2129   -5.7243   22.2428 C   0  0  0  0  0  0  0  0  0  0  0  0
  -20.5372   -5.3444   22.2515 C   0  0  0  0  0  0  0  0  0  0  0  0
  -20.8763   -4.0052   22.4610 C   0  0  0  0  0  0  0  0  0  0  0  0
  -17.0565   -5.4968   22.3697 C   0  0  0  0  0  0  0  0  0  0  0  0
  -17.3168   -6.7908   22.1430 N   0  0  0  0  0  0  0  0  0  0  0  0
  -18.6351   -6.9229   22.0666 N   0  0  0  0  0  0  0  0  0  0  0  0
  -19.9796    4.1876   26.4627 C   0  0  0  0  0  0  0  0  0  0  0  0
  -20.4128    4.8627   27.6029 C   0  0  0  0  0  0  0  0  0  0  0  0
  -20.9391    4.1710   28.6781 C   0  0  0  0  0  0  0  0  0  0  0  0
  -21.0155    2.8019   28.5738 C   0  0  0  0  0  0  0  0  0  0  0  0
  -20.5888    2.1206   27.4473 C   0  0  0  0  0  0  0  0  0  0  0  0
  -20.0624    2.8133   26.3723 C   0  0  0  0  0  0  0  0  0  0  0  0
  -21.3654    4.8258   29.7982 F   0  0  0  0  0  0  0  0  0  0  0  0
  -19.6210    2.1100   25.2073 N   0  0  0  0  0  0  0  0  0  0  0  0
  -18.7031    2.7156   24.2537 C   0  0  0  0  0  0  0  0  0  0  0  0
  -18.2481    1.5554   23.4112 C   0  0  0  0  0  0  0  0  0  0  0  0
  -19.4940    0.6594   23.3832 C   0  0  2  0  0  0  0  0  0  0  0  0
  -19.9758    0.7695   24.7900 C   0  0  0  0  0  0  0  0  0  0  0  0
  -19.1121   -0.7026   23.0297 N   0  0  0  0  0  0  0  0  0  0  0  0
  -20.6689    0.7568   27.3528 F   0  0  0  0  0  0  0  0  0  0  0  0
  1  2  1  0
  1  3  2  0
  2  4  2  0
  4  5  1  0
  5  6  1  0
  6  7  1  0
  7  8  2  0
  8  2  1  0
  5  9  1  0
  9 10  2  0
 10 11  1  0
 11  6  2  0
 12 13  2  0
 13 14  1  0
 14 15  2  0
 15 16  1  0
 16 17  2  0
 17 12  1  0
 14 18  1  0
 17 19  1  0
 19 20  1  0
 20 21  1  0
 21 22  1  0
 22 23  1  0
 23 19  1  0
 22 24  1  1
  1 24  1  0
 16 25  1  0
M  END
$$$$
