7uj4
     RDKit          3D

 45 49  0  0  0  0  0  0  0  0999 V2000
  -21.7102   -0.4633   22.8232 N   0  0  0  0  0  0  0  0  0  0  0  0
  -20.1201   -5.0751   22.9812 N   0  0  0  0  0  0  0  0  0  0  0  0
  -20.6921   -1.3815   22.3410 C   0  0  0  0  0  0  0  0  0  0  0  0
  -22.5673   -1.3774   23.5692 C   0  0  0  0  0  0  0  0  0  0  0  0
  -21.4766   -2.4671   23.1978 C   0  0  0  0  0  0  0  0  0  0  0  0
  -20.6679   -3.0525   24.3547 C   0  0  0  0  0  0  0  0  0  0  0  0
  -19.5771   -3.9659   23.8443 C   0  0  0  0  0  0  0  0  0  0  0  0
  -22.0351   -3.6195   22.3675 C   0  0  0  0  0  0  0  0  0  0  0  0
  -20.9512   -4.5369   21.8578 C   0  0  0  0  0  0  0  0  0  0  0  0
  -21.7851    3.6122   22.7947 N   0  0  0  0  0  0  0  0  0  0  0  0
  -20.5910    1.5598   22.8464 N   0  0  0  0  0  0  0  0  0  0  0  0
  -22.9360    1.5846   22.7004 C   0  0  0  0  0  0  0  0  0  0  0  0
  -22.9254    2.9566   22.7155 C   0  0  0  0  0  0  0  0  0  0  0  0
  -20.6559    2.8949   22.8025 C   0  0  0  0  0  0  0  0  0  0  0  0
  -21.7332    0.8920   22.7595 C   0  0  0  0  0  0  0  0  0  0  0  0
  -24.1262    0.9437   22.6173 O   0  0  0  0  0  0  0  0  0  0  0  0
  -26.1470    0.5990   21.3835 C   0  0  0  0  0  0  0  0  0  0  0  0
  -26.7632    0.3730   20.1515 C   0  0  0  0  0  0  0  0  0  0  0  0
  -25.9813    0.3357   19.0237 C   0  0  0  0  0  0  0  0  0  0  0  0
  -24.6154    0.4943   19.0293 C   0  0  0  0  0  0  0  0  0  0  0  0
  -24.0013    0.6929   20.2508 C   0  0  0  0  0  0  0  0  0  0  0  0
  -24.7535    0.6974   21.4054 C   0  0  0  0  0  0  0  0  0  0  0  0
  -26.5678    0.1256   17.8253 F   0  0  0  0  0  0  0  0  0  0  0  0
  -27.6558    1.8129   22.9969 N   0  0  0  0  0  0  0  0  0  0  0  0
  -26.9058   -0.2262   23.4483 O   0  0  0  0  0  0  0  0  0  0  0  0
  -26.9319    0.7244   22.6792 C   0  0  0  0  0  0  0  0  0  0  0  0
  -26.5145    3.9691   22.8366 C   0  0  0  0  0  0  0  0  0  0  0  0
  -27.5877    3.0770   22.2530 C   0  0  0  0  0  0  0  0  0  0  0  0
  -28.9421    3.7335   22.1754 C   0  0  0  0  0  0  0  0  0  0  0  0
  -28.5128    1.8390   24.1914 C   0  0  0  0  0  0  0  0  0  0  0  0
  -27.7741    2.1900   25.4487 C   0  0  0  0  0  0  0  0  0  0  0  0
  -19.0005   -5.8772   22.3926 C   0  0  0  0  0  0  0  0  0  0  0  0
  -19.3971   -6.6675   21.1451 C   0  0  1  0  0  0  0  0  0  0  0  0
  -18.2447   -7.5146   20.5859 C   0  0  0  0  0  0  0  0  0  0  0  0
  -18.6503   -8.3237   19.3653 C   0  0  0  0  0  0  0  0  0  0  0  0
  -20.6343   -7.5247   21.4027 C   0  0  0  0  0  0  0  0  0  0  0  0
  -21.0455   -8.2790   20.1467 C   0  0  0  0  0  0  0  0  0  0  0  0
  -19.8984   -9.1358   19.6357 C   0  0  1  0  0  0  0  0  0  0  0  0
  -20.3344   -9.8318   18.4126 N   0  0  0  0  0  0  0  0  0  0  0  0
  -20.8136   -9.1314   17.8468 H   0  0  0  0  0  0  0  0  0  0  0  0
  -21.3110  -11.1378   18.4317 S   0  0  0  0  0  0  0  0  0  0  0  0
  -20.6582  -12.0942   17.5893 O   0  0  0  0  0  0  0  0  0  0  0  0
  -21.5452  -11.4610   19.8105 O   0  0  0  0  0  0  0  0  0  0  0  0
  -22.8372  -10.6170   17.6668 C   0  0  0  0  0  0  0  0  0  0  0  0
  -24.0686  -11.0805   18.4185 C   0  0  0  0  0  0  0  0  0  0  0  0
 27 28  1  0
 24 30  1  0
 24 26  1  0
 41 42  2  0
 41 43  2  0
 41 44  1  0
 24 28  1  0
 28 29  1  0
 10 14  2  0
 16 12  1  0
 11 15  2  0
 30 31  1  0
  1  3  1  0
  1  4  1  0
  2 32  1  0
 25 26  2  0
 26 17  1  0
 41 39  1  0
 17 18  2  0
 17 22  1  0
 18 19  1  0
 19 20  2  0
 19 23  1  0
 20 21  1  0
 21 22  2  0
 16 22  1  0
 12 13  2  0
 12 15  1  0
 10 13  1  0
 11 14  1  0
  1 15  1  0
  3  5  1  0
  4  5  1  0
  5  6  1  0
  5  8  1  0
  6  7  1  0
  2  7  1  0
  8  9  1  0
  2  9  1  0
 33 32  1  1
 33 34  1  0
 33 36  1  0
 34 35  1  0
 35 38  1  0
 36 37  1  0
 37 38  1  0
 38 39  1  6
 44 45  1  0
 39 40  1  0
M  END
>  <minimizedAffinity>  (1) 
-7.72335

>  <CNNscore>  (1) 
0.3111884594

>  <CNNaffinity>  (1) 
6.7079710960

>  <CNN_VS>  (1) 
2.0874431133

>  <CNNaffinity_variance>  (1) 
0.4017254412

$$$$
