7uj4
     RDKit          3D

 45 49  0  0  0  0  0  0  0  0999 V2000
  -22.1113   -2.4737   22.2312 N   0  0  0  0  0  0  0  0  0  0  0  0
  -23.9527   -1.6194   17.7926 N   0  0  0  0  0  0  0  0  0  0  0  0
  -23.2328   -1.9021   21.5050 C   0  0  0  0  0  0  0  0  0  0  0  0
  -21.3366   -3.0377   21.1320 C   0  0  0  0  0  0  0  0  0  0  0  0
  -22.4438   -2.3768   20.2088 C   0  0  0  0  0  0  0  0  0  0  0  0
  -21.9897   -1.2342   19.3012 C   0  0  0  0  0  0  0  0  0  0  0  0
  -23.1670   -0.6095   18.5882 C   0  0  0  0  0  0  0  0  0  0  0  0
  -23.2063   -3.3920   19.3620 C   0  0  0  0  0  0  0  0  0  0  0  0
  -24.3809   -2.7737   18.6450 C   0  0  0  0  0  0  0  0  0  0  0  0
  -21.2964   -2.0586   26.2037 N   0  0  0  0  0  0  0  0  0  0  0  0
  -21.7062   -3.4205   24.3014 N   0  0  0  0  0  0  0  0  0  0  0  0
  -21.6336   -1.0796   24.1127 C   0  0  0  0  0  0  0  0  0  0  0  0
  -21.3824   -0.9759   25.4575 C   0  0  0  0  0  0  0  0  0  0  0  0
  -21.4067   -3.2437   25.5928 C   0  0  0  0  0  0  0  0  0  0  0  0
  -21.7870   -2.3367   23.5418 C   0  0  0  0  0  0  0  0  0  0  0  0
  -21.7145    0.0543   23.3763 O   0  0  0  0  0  0  0  0  0  0  0  0
  -20.0995    1.8034   23.6142 C   0  0  0  0  0  0  0  0  0  0  0  0
  -18.9543    2.4374   23.1293 C   0  0  0  0  0  0  0  0  0  0  0  0
  -18.3308    1.9114   22.0250 C   0  0  0  0  0  0  0  0  0  0  0  0
  -18.7723    0.7977   21.3501 C   0  0  0  0  0  0  0  0  0  0  0  0
  -19.9199    0.1840   21.8139 C   0  0  0  0  0  0  0  0  0  0  0  0
  -20.5905    0.7097   22.8969 C   0  0  0  0  0  0  0  0  0  0  0  0
  -17.2174    2.5120   21.5518 F   0  0  0  0  0  0  0  0  0  0  0  0
  -21.9849    2.9443   24.8375 N   0  0  0  0  0  0  0  0  0  0  0  0
  -20.3162    1.9902   25.9463 O   0  0  0  0  0  0  0  0  0  0  0  0
  -20.8222    2.2684   24.8681 C   0  0  0  0  0  0  0  0  0  0  0  0
  -21.7321    4.6731   23.1274 C   0  0  0  0  0  0  0  0  0  0  0  0
  -22.5640    3.5059   23.6106 C   0  0  0  0  0  0  0  0  0  0  0  0
  -24.0206    3.8415   23.8035 C   0  0  0  0  0  0  0  0  0  0  0  0
  -22.7227    3.2521   26.0716 C   0  0  0  0  0  0  0  0  0  0  0  0
  -21.9228    4.0424   27.0642 C   0  0  0  0  0  0  0  0  0  0  0  0
  -25.1792   -0.9876   17.2094 C   0  0  0  0  0  0  0  0  0  0  0  0
  -26.1650   -0.4708   18.2579 C   0  0  1  0  0  0  0  0  0  0  0  0
  -26.6750   -1.5778   19.1921 C   0  0  0  0  0  0  0  0  0  0  0  0
  -27.6294   -1.0561   20.2531 C   0  0  0  0  0  0  0  0  0  0  0  0
  -25.5695    0.6885   19.0538 C   0  0  0  0  0  0  0  0  0  0  0  0
  -26.5693    1.2224   20.0692 C   0  0  0  0  0  0  0  0  0  0  0  0
  -27.0299    0.1142   21.0023 C   0  0  1  0  0  0  0  0  0  0  0  0
  -28.0071    0.6709   21.9540 N   0  0  0  0  0  0  0  0  0  0  0  0
  -28.5713    1.3333   21.4217 H   0  0  0  0  0  0  0  0  0  0  0  0
  -27.5750    1.4471   23.3217 S   0  0  0  0  0  0  0  0  0  0  0  0
  -28.6639    1.2280   24.2254 O   0  0  0  0  0  0  0  0  0  0  0  0
  -26.2659    0.9736   23.6718 O   0  0  0  0  0  0  0  0  0  0  0  0
  -27.4961    3.1785   22.8959 C   0  0  0  0  0  0  0  0  0  0  0  0
  -28.6541    3.6324   22.0304 C   0  0  0  0  0  0  0  0  0  0  0  0
 27 28  1  0
 24 30  1  0
 24 26  1  0
 41 42  2  0
 41 43  2  0
 41 44  1  0
 24 28  1  0
 28 29  1  0
 10 14  2  0
 16 12  1  0
 11 15  2  0
 30 31  1  0
  1  3  1  0
  1  4  1  0
  2 32  1  0
 25 26  2  0
 26 17  1  0
 41 39  1  0
 17 18  2  0
 17 22  1  0
 18 19  1  0
 19 20  2  0
 19 23  1  0
 20 21  1  0
 21 22  2  0
 16 22  1  0
 12 13  2  0
 12 15  1  0
 10 13  1  0
 11 14  1  0
  1 15  1  0
  3  5  1  0
  4  5  1  0
  5  6  1  0
  5  8  1  0
  6  7  1  0
  2  7  1  0
  8  9  1  0
  2  9  1  0
 33 32  1  6
 33 34  1  0
 33 36  1  0
 34 35  1  0
 35 38  1  0
 36 37  1  0
 37 38  1  0
 38 39  1  1
 44 45  1  0
 39 40  1  0
M  END
>  <minimizedAffinity>  (1) 
-7.55902

>  <CNNscore>  (1) 
0.2003460377

>  <CNNaffinity>  (1) 
6.6531796455

>  <CNN_VS>  (1) 
1.3329381943

>  <CNNaffinity_variance>  (1) 
0.8312945962

$$$$
