7uj4
     RDKit          3D

 45 49  0  0  0  0  0  0  0  0999 V2000
  -22.0316    0.8995   21.3835 N   0  0  0  0  0  0  0  0  0  0  0  0
  -26.9022    1.2097   21.4306 N   0  0  0  0  0  0  0  0  0  0  0  0
  -23.1633    1.6831   21.8497 C   0  0  0  0  0  0  0  0  0  0  0  0
  -22.7194   -0.2318   20.7723 C   0  0  0  0  0  0  0  0  0  0  0  0
  -24.0409    0.5665   21.1349 C   0  0  0  0  0  0  0  0  0  0  0  0
  -24.8751    1.0833   19.9635 C   0  0  0  0  0  0  0  0  0  0  0  0
  -26.0202    1.9407   20.4518 C   0  0  0  0  0  0  0  0  0  0  0  0
  -24.9620   -0.1936   22.0852 C   0  0  0  0  0  0  0  0  0  0  0  0
  -26.1091    0.6559   22.5736 C   0  0  0  0  0  0  0  0  0  0  0  0
  -18.0496    1.7713   21.3639 N   0  0  0  0  0  0  0  0  0  0  0  0
  -19.9708    0.8245   20.3376 N   0  0  0  0  0  0  0  0  0  0  0  0
  -20.1303    1.9217   22.4091 C   0  0  0  0  0  0  0  0  0  0  0  0
  -18.7828    2.1786   22.3802 C   0  0  0  0  0  0  0  0  0  0  0  0
  -18.6756    1.1574   20.3535 C   0  0  0  0  0  0  0  0  0  0  0  0
  -20.7175    1.2369   21.3527 C   0  0  0  0  0  0  0  0  0  0  0  0
  -20.8531    2.3559   23.4690 O   0  0  0  0  0  0  0  0  0  0  0  0
  -21.0802    3.1949   25.6982 C   0  0  0  0  0  0  0  0  0  0  0  0
  -20.4640    3.6483   26.8657 C   0  0  0  0  0  0  0  0  0  0  0  0
  -19.0926    3.6395   26.9299 C   0  0  0  0  0  0  0  0  0  0  0  0
  -18.2774    3.2220   25.9043 C   0  0  0  0  0  0  0  0  0  0  0  0
  -18.8854    2.7967   24.7389 C   0  0  0  0  0  0  0  0  0  0  0  0
  -20.2586    2.8294   24.6289 C   0  0  0  0  0  0  0  0  0  0  0  0
  -18.4858    4.0685   28.0577 F   0  0  0  0  0  0  0  0  0  0  0  0
  -23.3669    2.3961   26.3954 N   0  0  0  0  0  0  0  0  0  0  0  0
  -23.1079    3.7208   24.6340 O   0  0  0  0  0  0  0  0  0  0  0  0
  -22.5907    3.1027   25.5540 C   0  0  0  0  0  0  0  0  0  0  0  0
  -23.2186    0.0409   27.0343 C   0  0  0  0  0  0  0  0  0  0  0  0
  -22.8364    1.4594   27.3941 C   0  0  0  0  0  0  0  0  0  0  0  0
  -23.2496    1.8613   28.7867 C   0  0  0  0  0  0  0  0  0  0  0  0
  -24.8337    2.4464   26.3064 C   0  0  0  0  0  0  0  0  0  0  0  0
  -25.5165    2.3462   27.6382 C   0  0  0  0  0  0  0  0  0  0  0  0
  -27.9441    2.1310   21.9864 C   0  0  0  0  0  0  0  0  0  0  0  0
  -28.4634    1.7159   23.3635 C   0  0  1  0  0  0  0  0  0  0  0  0
  -27.9528    2.6249   24.4910 C   0  0  0  0  0  0  0  0  0  0  0  0
  -28.4958    2.2299   25.8540 C   0  0  0  0  0  0  0  0  0  0  0  0
  -29.9879    1.6277   23.3769 C   0  0  0  0  0  0  0  0  0  0  0  0
  -30.4956    1.1777   24.7390 C   0  0  0  0  0  0  0  0  0  0  0  0
  -30.0047    2.1146   25.8308 C   0  0  1  0  0  0  0  0  0  0  0  0
  -30.5039    1.6318   27.1301 N   0  0  0  0  0  0  0  0  0  0  0  0
  -31.1685    2.3344   27.4541 H   0  0  0  0  0  0  0  0  0  0  0  0
  -29.5275    1.3192   28.3985 S   0  0  0  0  0  0  0  0  0  0  0  0
  -28.8382    2.5507   28.6407 O   0  0  0  0  0  0  0  0  0  0  0  0
  -30.3542    0.7624   29.4315 O   0  0  0  0  0  0  0  0  0  0  0  0
  -28.3653    0.0905   27.8283 C   0  0  0  0  0  0  0  0  0  0  0  0
  -28.4541   -1.2140   28.5941 C   0  0  0  0  0  0  0  0  0  0  0  0
 27 28  1  0
 24 30  1  0
 24 26  1  0
 41 42  2  0
 41 43  2  0
 41 44  1  0
 24 28  1  0
 28 29  1  0
 10 14  2  0
 16 12  1  0
 11 15  2  0
 30 31  1  0
  1  3  1  0
  1  4  1  0
  2 32  1  0
 25 26  2  0
 26 17  1  0
 41 39  1  0
 17 18  2  0
 17 22  1  0
 18 19  1  0
 19 20  2  0
 19 23  1  0
 20 21  1  0
 21 22  2  0
 16 22  1  0
 12 13  2  0
 12 15  1  0
 10 13  1  0
 11 14  1  0
  1 15  1  0
  3  5  1  0
  4  5  1  0
  5  6  1  0
  5  8  1  0
  6  7  1  0
  2  7  1  0
  8  9  1  0
  2  9  1  0
 33 32  1  6
 33 34  1  0
 33 36  1  0
 34 35  1  0
 35 38  1  0
 36 37  1  0
 37 38  1  0
 38 39  1  1
 44 45  1  0
 39 40  1  0
M  END
>  <minimizedAffinity>  (1) 
-8.18850

>  <CNNscore>  (1) 
0.2685070932

>  <CNNaffinity>  (1) 
7.1435437202

>  <CNN_VS>  (1) 
1.9180921316

>  <CNNaffinity_variance>  (1) 
0.6431059837

$$$$
