7uj4
     RDKit          3D

 44 48  0  0  0  0  0  0  0  0999 V2000
  -24.5421    1.4409   22.9352 C   0  0  0  0  0  0  0  0  0  0  0  0
  -23.3951    1.8303   25.0707 N   0  0  0  0  0  0  0  0  0  0  0  0
  -23.4156    0.3051   26.7645 O   0  0  0  0  0  0  0  0  0  0  0  0
  -19.7928  -12.0438   23.0659 S   0  0  1  0  0  6  0  0  0  0  0  0
  -24.4334    1.0943   24.3893 C   0  0  1  0  0  0  0  0  0  0  0  0
  -17.9590    3.4556   23.2420 N   0  0  0  0  0  0  0  0  0  0  0  0
  -20.1004    1.3437   25.2706 O   0  0  0  0  0  0  0  0  0  0  0  0
  -25.7566    1.4155   25.0989 C   0  0  0  0  0  0  0  0  0  0  0  0
  -18.5770    1.5876   22.0454 N   0  0  0  0  0  0  0  0  0  0  0  0
  -18.5170  -12.4168   22.3644 O   0  0  0  0  0  0  0  0  0  0  0  0
  -22.9106    3.0841   24.5094 C   0  0  0  0  0  0  0  0  0  0  0  0
  -20.0013   -0.1396   22.9618 N   0  0  0  0  0  0  0  0  0  0  0  0
  -19.6961  -12.5499   24.4766 O   0  0  0  0  0  0  0  0  0  0  0  0
  -22.7234    4.1503   25.5505 C   0  0  0  0  0  0  0  0  0  0  0  0
  -19.6030   -5.0373   23.1663 N   0  0  0  0  0  0  0  0  0  0  0  0
  -22.8720    1.3132   26.2829 C   0  0  0  0  0  0  0  0  0  0  0  0
  -19.9289  -10.3328   23.1163 N   0  0  0  0  0  0  0  0  0  0  0  0
  -21.7398    1.9738   26.9009 C   0  0  0  0  0  0  0  0  0  0  0  0
  -21.9453    2.6545   28.1057 C   0  0  0  0  0  0  0  0  0  0  0  0
  -20.9393    3.2831   28.7905 C   0  0  0  0  0  0  0  0  0  0  0  0
  -19.6402    3.2678   28.3004 C   0  0  0  0  0  0  0  0  0  0  0  0
  -19.4245    2.6067   27.1241 C   0  0  0  0  0  0  0  0  0  0  0  0
  -20.4567    1.9633   26.4224 C   0  0  0  0  0  0  0  0  0  0  0  0
  -19.3474    1.8634   24.2412 C   0  0  0  0  0  0  0  0  0  0  0  0
  -18.6548    3.0591   24.3119 C   0  0  0  0  0  0  0  0  0  0  0  0
  -17.9106    2.7369   22.1098 C   0  0  0  0  0  0  0  0  0  0  0  0
  -19.3149    1.0915   23.0732 C   0  0  0  0  0  0  0  0  0  0  0  0
  -20.2262   -1.0658   21.8695 C   0  0  0  0  0  0  0  0  0  0  0  0
  -20.7639   -1.0395   23.7920 C   0  0  0  0  0  0  0  0  0  0  0  0
  -20.2324   -2.1617   22.9296 C   0  0  2  0  0  0  0  0  0  0  0  0
  -18.8899   -2.6912   23.3282 C   0  0  0  0  0  0  0  0  0  0  0  0
  -19.0812   -4.0041   24.0623 C   0  0  0  0  0  0  0  0  0  0  0  0
  -21.1389   -3.3142   22.6616 C   0  0  0  0  0  0  0  0  0  0  0  0
  -20.2374   -4.4364   22.0713 C   0  0  0  0  0  0  0  0  0  0  0  0
  -18.6212   -6.0233   23.0218 C   0  0  0  0  0  0  0  0  0  0  0  0
  -19.0562   -7.4517   22.8453 C   0  0  1  0  0  0  0  0  0  0  0  0
  -20.5481   -7.5370   22.8584 C   0  0  0  0  0  0  0  0  0  0  0  0
  -21.1589   -8.5452   21.9556 C   0  0  0  0  0  0  0  0  0  0  0  0
  -18.3088   -8.1318   21.7950 C   0  0  0  0  0  0  0  0  0  0  0  0
  -19.0107   -9.2912   21.1363 C   0  0  0  0  0  0  0  0  0  0  0  0
  -20.2407   -9.7445   21.8540 C   0  0  1  0  0  0  0  0  0  0  0  0
  -21.1302  -12.7999   22.1885 C   0  0  0  0  0  0  0  0  0  0  0  0
  -22.2962  -12.9787   23.1074 C   0  0  0  0  0  0  0  0  0  0  0  0
  -21.1453    3.9434   29.9639 F   0  0  0  0  0  0  0  0  0  0  0  0
  5  1  1  6
  2 11  1  0
  2 16  1  0
  4 10  2  0
  4 13  2  0
  4 42  1  6
  2  5  1  0
  5  8  1  0
  6 26  2  0
  7 24  1  0
  9 27  2  0
 11 14  1  0
 12 28  1  0
 12 29  1  0
 15 35  1  0
  3 16  2  0
 16 18  1  0
  4 17  1  0
 18 19  2  0
 18 23  1  0
 19 20  1  0
 20 21  2  0
 20 44  1  0
 21 22  1  0
 22 23  2  0
  7 23  1  0
 24 25  2  0
 24 27  1  0
  6 25  1  0
  9 26  1  0
 12 27  1  0
 30 28  1  6
 29 30  1  0
 30 31  1  0
 30 33  1  0
 31 32  1  0
 15 32  1  0
 33 34  1  0
 15 34  1  0
 36 35  1  6
 36 37  1  0
 36 39  1  0
 37 38  1  0
 38 41  1  0
 39 40  1  0
 40 41  1  0
 41 17  1  1
 42 43  1  0
M  END
$$$$
