ziftomenib.sdf
     RDKit          3D

 49 54  0  0  1  0  0  0  0  0999 V2000
  -17.5045  -13.0963   21.8374 N   0  0  0  0  0  0  0  0  0  0  0  0
  -17.9262  -12.0177   21.9724 C   0  0  0  0  0  0  0  0  0  0  0  0
  -18.4510  -10.7030   22.1264 C   0  0  0  0  0  0  0  0  0  0  0  0
  -19.6909  -10.3252   22.5382 N   0  0  0  0  0  0  0  0  0  0  0  0
  -20.6924  -11.2947   22.9025 C   0  0  0  0  0  0  0  0  0  0  0  0
  -21.2696  -12.0147   21.7118 C   0  0  1  0  0  0  0  0  0  0  0  0
  -22.2160  -13.0044   22.1738 N   0  0  0  0  0  0  0  0  0  0  0  0
  -23.4417  -12.9926   21.4416 C   0  0  0  0  0  0  0  0  0  0  0  0
  -23.7343  -14.3081   20.7563 C   0  0  0  0  0  0  0  0  0  0  0  0
  -23.7410  -15.3648   21.7099 N   0  0  0  0  0  0  0  0  0  0  0  0
  -25.1867  -15.5183   22.5929 S   0  0  1  0  0  6  0  0  0  0  0  0
  -24.9865  -16.2055   23.9364 O   0  0  0  0  0  0  0  0  0  0  0  0
  -25.8836  -13.8997   22.8716 C   0  0  0  0  0  0  0  0  0  0  0  0
  -26.2234  -16.3294   21.8567 O   0  0  0  0  0  0  0  0  0  0  0  0
  -22.5370  -15.4537   22.4586 C   0  0  0  0  0  0  0  0  0  0  0  0
  -21.6408  -14.2680   22.4470 C   0  0  0  0  0  0  0  0  0  0  0  0
  -21.8587  -11.0257   20.7702 C   0  0  0  0  0  0  0  0  0  0  0  0
  -17.7050   -9.5503   21.8561 C   0  0  0  0  0  0  0  0  0  0  0  0
  -18.5459   -8.5017   22.1233 C   0  0  0  0  0  0  0  0  0  0  0  0
  -19.7516   -8.9869   22.5378 C   0  0  0  0  0  0  0  0  0  0  0  0
  -20.7426   -8.0846   22.8679 C   0  0  0  0  0  0  0  0  0  0  0  0
  -20.4899   -6.7452   22.7690 C   0  0  0  0  0  0  0  0  0  0  0  0
  -19.2438   -6.2313   22.3387 C   0  0  0  0  0  0  0  0  0  0  0  0
  -19.1062   -4.7610   22.2320 C   0  0  0  0  0  0  0  0  0  0  0  0
  -20.2638   -3.9983   22.0478 N   0  0  0  0  0  0  0  0  0  0  0  0
  -20.2496   -2.7179   21.4702 C   0  0  0  0  0  0  0  0  0  0  0  0
  -19.8489   -1.6161   22.3934 C   0  0  0  0  0  0  0  0  0  0  0  0
  -20.6395   -1.6310   23.6659 C   0  0  2  0  0  0  0  0  0  0  0  0
  -19.9881   -0.8097   24.6736 N   0  0  0  0  0  0  0  0  0  0  0  0
  -19.5966    0.5309   24.5112 C   0  0  0  0  0  0  0  0  0  0  0  0
  -19.6261    1.4363   25.6057 C   0  0  0  0  0  0  0  0  0  0  0  0
  -20.0034    1.1653   26.8686 C   0  0  0  0  0  0  0  0  0  0  0  0
  -19.9708    2.1604   27.7855 C   0  0  0  0  0  0  0  0  0  0  0  0
  -20.3285    2.1548   29.2251 C   0  0  0  0  0  0  0  0  0  0  0  0
  -21.6925    2.8068   29.3634 C   0  0  1  0  0  0  0  0  0  0  0  0
  -22.1349    2.7447   30.6852 F   0  0  0  0  0  0  0  0  0  0  0  0
  -21.6602    4.1299   29.0066 F   0  0  0  0  0  0  0  0  0  0  0  0
  -22.6407    2.1608   28.6158 F   0  0  0  0  0  0  0  0  0  0  0  0
  -19.3949    3.5367   26.8748 S   0  0  0  0  0  0  0  0  0  0  0  0
  -19.2274    2.6904   25.2954 C   0  0  0  0  0  0  0  0  0  0  0  0
  -18.8220    3.1179   24.0733 N   0  0  0  0  0  0  0  0  0  0  0  0
  -18.8067    2.2186   23.0465 C   0  0  0  0  0  0  0  0  0  0  0  0
  -18.4094    2.5727   21.7528 N   0  0  0  0  0  0  0  0  0  0  0  0
  -18.4012    1.5257   20.7264 C   0  0  0  0  0  0  0  0  0  0  0  0
  -19.1960    0.9730   23.3252 N   0  0  0  0  0  0  0  0  0  0  0  0
  -20.7899   -3.0040   24.2118 C   0  0  0  0  0  0  0  0  0  0  0  0
  -21.1728   -4.0541   23.1938 C   0  0  0  0  0  0  0  0  0  0  0  0
  -18.2672   -7.1278   22.0159 C   0  0  0  0  0  0  0  0  0  0  0  0
  -16.9083   -6.6882   21.6070 C   0  0  0  0  0  0  0  0  0  0  0  0
  1  2  3  0
  2  3  1  0
  3  4  1  0
  4  5  1  0
  5  6  1  0
  6  7  1  0
  7  8  1  0
  8  9  1  0
  9 10  1  0
 10 11  1  0
 11 12  2  0
 11 13  1  1
 11 14  2  0
 10 15  1  0
 15 16  1  0
  7 16  1  0
  6 17  1  6
  3 18  2  0
 18 19  1  0
 19 20  2  0
  4 20  1  0
 20 21  1  0
 21 22  2  0
 22 23  1  0
 23 24  1  0
 24 25  1  0
 25 26  1  0
 26 27  1  0
 27 28  1  0
 28 29  1  1
 29 30  1  0
 30 31  2  0
 31 32  1  0
 32 33  2  0
 33 34  1  0
 34 35  1  0
 35 36  1  1
 35 37  1  0
 35 38  1  0
 33 39  1  0
 31 40  1  0
 39 40  1  0
 40 41  2  0
 41 42  1  0
 42 43  1  0
 43 44  1  0
 42 45  2  0
 30 45  1  0
 28 46  1  0
 46 47  1  0
 25 47  1  0
 23 48  2  0
 19 48  1  0
 48 49  1  0
M  END
$$$$
