NS-C-142.sdf
     RDKit          3D

 25 28  0  0  1  0  0  0  0  0999 V2000
  -19.4479    0.9083   21.7853 C   0  0  0  0  0  0  0  0  0  0  0  0
  -19.8219    1.2312   20.4081 C   0  0  0  0  0  0  0  0  0  0  0  0
  -18.3822    1.4270   22.2598 O   0  0  0  0  0  0  0  0  0  0  0  0
  -20.8793    0.5671   19.8083 C   0  0  0  0  0  0  0  0  0  0  0  0
  -21.3194    0.7637   18.5707 N   0  0  0  0  0  0  0  0  0  0  0  0
  -20.6657    1.7076   17.8277 C   0  0  0  0  0  0  0  0  0  0  0  0
  -19.6033    2.4152   18.3461 C   0  0  0  0  0  0  0  0  0  0  0  0
  -19.1767    2.1725   19.6544 C   0  0  0  0  0  0  0  0  0  0  0  0
  -22.2903    0.2667   17.7843 C   0  0  0  0  0  0  0  0  0  0  0  0
  -22.2518    0.8728   16.5907 N   0  0  0  0  0  0  0  0  0  0  0  0
  -21.2576    1.7513   16.6238 N   0  0  0  0  0  0  0  0  0  0  0  0
  -21.8802    1.7139   28.0679 C   0  0  0  0  0  0  0  0  0  0  0  0
  -22.0680    2.5900   29.1361 C   0  0  0  0  0  0  0  0  0  0  0  0
  -21.2597    3.7009   29.2911 C   0  0  0  0  0  0  0  0  0  0  0  0
  -20.2727    3.9011   28.3546 C   0  0  0  0  0  0  0  0  0  0  0  0
  -20.0766    3.0387   27.2902 C   0  0  0  0  0  0  0  0  0  0  0  0
  -20.8855    1.9277   27.1359 C   0  0  0  0  0  0  0  0  0  0  0  0
  -21.4379    4.5632   30.3350 F   0  0  0  0  0  0  0  0  0  0  0  0
  -20.6837    1.0355   26.0359 N   0  0  0  0  0  0  0  0  0  0  0  0
  -20.8483   -0.4032   26.1816 C   0  0  0  0  0  0  0  0  0  0  0  0
  -20.8862   -0.9029   24.7632 C   0  0  0  0  0  0  0  0  0  0  0  0
  -19.9400    0.0696   24.0455 C   0  0  2  0  0  0  0  0  0  0  0  0
  -20.3074    1.3690   24.6779 C   0  0  0  0  0  0  0  0  0  0  0  0
  -20.2099    0.0508   22.6128 N   0  0  0  0  0  0  0  0  0  0  0  0
  -19.0908    3.2466   26.3626 F   0  0  0  0  0  0  0  0  0  0  0  0
  1  2  1  0
  1  3  2  0
  2  4  2  0
  4  5  1  0
  5  6  1  0
  6  7  1  0
  7  8  2  0
  8  2  1  0
  5  9  1  0
  9 10  2  0
 10 11  1  0
 11  6  2  0
 12 13  2  0
 13 14  1  0
 14 15  2  0
 15 16  1  0
 16 17  2  0
 17 12  1  0
 14 18  1  0
 17 19  1  0
 19 20  1  0
 20 21  1  0
 21 22  1  0
 22 23  1  0
 23 19  1  0
 22 24  1  6
  1 24  1  0
 16 25  1  0
M  END
$$$$
