NS-C-142.sdf
     RDKit          3D

 25 28  0  0  1  0  0  0  0  0999 V2000
  -19.5326    0.7560   21.8236 C   0  0  0  0  0  0  0  0  0  0  0  0
  -19.8117    1.1687   20.4478 C   0  0  0  0  0  0  0  0  0  0  0  0
  -18.4356    1.1329   22.3569 O   0  0  0  0  0  0  0  0  0  0  0  0
  -20.9746    0.7458   19.8249 C   0  0  0  0  0  0  0  0  0  0  0  0
  -21.3465    1.0465   18.5859 N   0  0  0  0  0  0  0  0  0  0  0  0
  -20.5013    1.8454   17.8663 C   0  0  0  0  0  0  0  0  0  0  0  0
  -19.3234    2.3109   18.4086 C   0  0  0  0  0  0  0  0  0  0  0  0
  -18.9753    1.9669   19.7174 C   0  0  0  0  0  0  0  0  0  0  0  0
  -22.3875    0.7720   17.7802 C   0  0  0  0  0  0  0  0  0  0  0  0
  -22.2073    1.3738   16.5975 N   0  0  0  0  0  0  0  0  0  0  0  0
  -21.0539    2.0275   16.6567 N   0  0  0  0  0  0  0  0  0  0  0  0
  -22.1017    1.8535   27.9399 C   0  0  0  0  0  0  0  0  0  0  0  0
  -22.1932    2.7282   29.0217 C   0  0  0  0  0  0  0  0  0  0  0  0
  -21.1680    3.6108   29.3071 C   0  0  0  0  0  0  0  0  0  0  0  0
  -20.0656    3.5876   28.4853 C   0  0  0  0  0  0  0  0  0  0  0  0
  -19.9633    2.7241   27.4087 C   0  0  0  0  0  0  0  0  0  0  0  0
  -20.9892    1.8416   27.1239 C   0  0  0  0  0  0  0  0  0  0  0  0
  -21.2509    4.4705   30.3651 F   0  0  0  0  0  0  0  0  0  0  0  0
  -20.8844    0.9484   26.0112 N   0  0  0  0  0  0  0  0  0  0  0  0
  -21.2874   -0.4464   26.1131 C   0  0  0  0  0  0  0  0  0  0  0  0
  -21.3403   -0.9074   24.6822 C   0  0  0  0  0  0  0  0  0  0  0  0
  -20.2163   -0.0900   24.0305 C   0  0  2  0  0  0  0  0  0  0  0  0
  -20.3964    1.2403   24.6794 C   0  0  0  0  0  0  0  0  0  0  0  0
  -20.4190   -0.0385   22.5876 N   0  0  0  0  0  0  0  0  0  0  0  0
  -18.8613    2.7084   26.5959 F   0  0  0  0  0  0  0  0  0  0  0  0
  1  2  1  0
  1  3  2  0
  2  4  2  0
  4  5  1  0
  5  6  1  0
  6  7  1  0
  7  8  2  0
  8  2  1  0
  5  9  1  0
  9 10  2  0
 10 11  1  0
 11  6  2  0
 12 13  2  0
 13 14  1  0
 14 15  2  0
 15 16  1  0
 16 17  2  0
 17 12  1  0
 14 18  1  0
 17 19  1  0
 19 20  1  0
 20 21  1  0
 21 22  1  0
 22 23  1  0
 23 19  1  0
 22 24  1  6
  1 24  1  0
 16 25  1  0
M  END
$$$$
