NS-C-142.sdf
     RDKit          3D

 25 28  0  0  1  0  0  0  0  0999 V2000
  -17.8256    2.7967   22.3985 C   0  0  0  0  0  0  0  0  0  0  0  0
  -16.9385    3.7281   21.7011 C   0  0  0  0  0  0  0  0  0  0  0  0
  -17.6612    1.5456   22.2048 O   0  0  0  0  0  0  0  0  0  0  0  0
  -16.7606    5.0100   22.1954 C   0  0  0  0  0  0  0  0  0  0  0  0
  -15.9877    5.9489   21.6615 N   0  0  0  0  0  0  0  0  0  0  0  0
  -15.3097    5.6135   20.5221 C   0  0  0  0  0  0  0  0  0  0  0  0
  -15.4288    4.3602   19.9625 C   0  0  0  0  0  0  0  0  0  0  0  0
  -16.2550    3.4055   20.5614 C   0  0  0  0  0  0  0  0  0  0  0  0
  -15.6577    7.2226   21.9389 C   0  0  0  0  0  0  0  0  0  0  0  0
  -14.8044    7.6746   21.0110 N   0  0  0  0  0  0  0  0  0  0  0  0
  -14.5961    6.6873   20.1490 N   0  0  0  0  0  0  0  0  0  0  0  0
  -22.5482    2.1655   27.7412 C   0  0  0  0  0  0  0  0  0  0  0  0
  -23.1229    2.3148   29.0026 C   0  0  0  0  0  0  0  0  0  0  0  0
  -22.3527    2.6727   30.0936 C   0  0  0  0  0  0  0  0  0  0  0  0
  -21.0088    2.8727   29.8814 C   0  0  0  0  0  0  0  0  0  0  0  0
  -20.4269    2.7275   28.6342 C   0  0  0  0  0  0  0  0  0  0  0  0
  -21.1980    2.3695   27.5435 C   0  0  0  0  0  0  0  0  0  0  0  0
  -22.9090    2.8208   31.3321 F   0  0  0  0  0  0  0  0  0  0  0  0
  -20.5975    2.2191   26.2537 N   0  0  0  0  0  0  0  0  0  0  0  0
  -20.8196    1.0306   25.4436 C   0  0  0  0  0  0  0  0  0  0  0  0
  -20.3141    1.4270   24.0833 C   0  0  0  0  0  0  0  0  0  0  0  0
  -19.1551    2.3736   24.4251 C   0  0  2  0  0  0  0  0  0  0  0  0
  -19.7247    3.1473   25.5654 C   0  0  0  0  0  0  0  0  0  0  0  0
  -18.8536    3.2168   23.2745 N   0  0  0  0  0  0  0  0  0  0  0  0
  -19.0874    2.9288   28.4328 F   0  0  0  0  0  0  0  0  0  0  0  0
  1  2  1  0
  1  3  2  0
  2  4  2  0
  4  5  1  0
  5  6  1  0
  6  7  1  0
  7  8  2  0
  8  2  1  0
  5  9  1  0
  9 10  2  0
 10 11  1  0
 11  6  2  0
 12 13  2  0
 13 14  1  0
 14 15  2  0
 15 16  1  0
 16 17  2  0
 17 12  1  0
 14 18  1  0
 17 19  1  0
 19 20  1  0
 20 21  1  0
 21 22  1  0
 22 23  1  0
 23 19  1  0
 22 24  1  6
  1 24  1  0
 16 25  1  0
M  END
$$$$
