NS-C-142.sdf
     RDKit          3D

 25 28  0  0  1  0  0  0  0  0999 V2000
  -20.2210   -1.8552   22.8165 C   0  0  0  0  0  0  0  0  0  0  0  0
  -19.9871   -3.2879   22.6333 C   0  0  0  0  0  0  0  0  0  0  0  0
  -21.4276   -1.4431   22.8804 O   0  0  0  0  0  0  0  0  0  0  0  0
  -18.7033   -3.7507   22.3949 C   0  0  0  0  0  0  0  0  0  0  0  0
  -18.3557   -5.0194   22.2118 N   0  0  0  0  0  0  0  0  0  0  0  0
  -19.3597   -5.9465   22.2646 C   0  0  0  0  0  0  0  0  0  0  0  0
  -20.6654   -5.5733   22.4970 C   0  0  0  0  0  0  0  0  0  0  0  0
  -20.9818   -4.2251   22.6837 C   0  0  0  0  0  0  0  0  0  0  0  0
  -17.2215   -5.7011   21.9728 C   0  0  0  0  0  0  0  0  0  0  0  0
  -17.4979   -7.0080   21.8783 N   0  0  0  0  0  0  0  0  0  0  0  0
  -18.8050   -7.1511   22.0575 N   0  0  0  0  0  0  0  0  0  0  0  0
  -20.0399    4.0793   26.2031 C   0  0  0  0  0  0  0  0  0  0  0  0
  -20.4300    4.7875   27.3388 C   0  0  0  0  0  0  0  0  0  0  0  0
  -20.7774    4.1252   28.5016 C   0  0  0  0  0  0  0  0  0  0  0  0
  -20.7215    2.7512   28.4882 C   0  0  0  0  0  0  0  0  0  0  0  0
  -20.3359    2.0372   27.3672 C   0  0  0  0  0  0  0  0  0  0  0  0
  -19.9886    2.7005   26.2045 C   0  0  0  0  0  0  0  0  0  0  0  0
  -21.1605    4.8126   29.6178 F   0  0  0  0  0  0  0  0  0  0  0  0
  -19.5898    1.9633   25.0451 N   0  0  0  0  0  0  0  0  0  0  0  0
  -18.6951    2.5345   24.0494 C   0  0  0  0  0  0  0  0  0  0  0  0
  -18.2775    1.3487   23.2235 C   0  0  0  0  0  0  0  0  0  0  0  0
  -19.5328    0.4658   23.2557 C   0  0  2  0  0  0  0  0  0  0  0  0
  -19.9706    0.6166   24.6730 C   0  0  0  0  0  0  0  0  0  0  0  0
  -19.1756   -0.9087   22.9257 N   0  0  0  0  0  0  0  0  0  0  0  0
  -20.2834    0.6688   27.3636 F   0  0  0  0  0  0  0  0  0  0  0  0
  1  2  1  0
  1  3  2  0
  2  4  2  0
  4  5  1  0
  5  6  1  0
  6  7  1  0
  7  8  2  0
  8  2  1  0
  5  9  1  0
  9 10  2  0
 10 11  1  0
 11  6  2  0
 12 13  2  0
 13 14  1  0
 14 15  2  0
 15 16  1  0
 16 17  2  0
 17 12  1  0
 14 18  1  0
 17 19  1  0
 19 20  1  0
 20 21  1  0
 21 22  1  0
 22 23  1  0
 23 19  1  0
 22 24  1  1
  1 24  1  0
 16 25  1  0
M  END
$$$$
