ziftomenib.sdf
     RDKit          3D

 49 54  0  0  1  0  0  0  0  0999 V2000
  -17.6581  -12.9521   22.0051 N   0  0  0  0  0  0  0  0  0  0  0  0
  -18.2044  -11.9390   22.1920 C   0  0  0  0  0  0  0  0  0  0  0  0
  -18.8599  -10.6973   22.4283 C   0  0  0  0  0  0  0  0  0  0  0  0
  -20.0072  -10.4593   23.1188 N   0  0  0  0  0  0  0  0  0  0  0  0
  -20.7439  -11.5259   23.7475 C   0  0  0  0  0  0  0  0  0  0  0  0
  -22.1939  -11.5542   23.3400 C   0  0  1  0  0  0  0  0  0  0  0  0
  -22.6204  -12.9293   23.2141 N   0  0  0  0  0  0  0  0  0  0  0  0
  -23.9957  -13.1222   23.5457 C   0  0  0  0  0  0  0  0  0  0  0  0
  -24.8075  -13.6834   22.4003 C   0  0  0  0  0  0  0  0  0  0  0  0
  -24.2343  -14.9053   21.9480 N   0  0  0  0  0  0  0  0  0  0  0  0
  -24.6348  -16.2688   22.8827 S   0  0  1  0  0  6  0  0  0  0  0  0
  -24.8340  -15.9362   24.3548 O   0  0  0  0  0  0  0  0  0  0  0  0
  -26.1337  -17.0002   22.2491 C   0  0  0  0  0  0  0  0  0  0  0  0
  -23.5650  -17.3308   22.8332 O   0  0  0  0  0  0  0  0  0  0  0  0
  -22.8697  -14.7811   21.5734 C   0  0  0  0  0  0  0  0  0  0  0  0
  -22.1411  -13.5767   22.0507 C   0  0  0  0  0  0  0  0  0  0  0  0
  -22.9995  -10.7708   24.3143 C   0  0  0  0  0  0  0  0  0  0  0  0
  -18.3724   -9.4769   21.9474 C   0  0  0  0  0  0  0  0  0  0  0  0
  -19.2667   -8.5324   22.3792 C   0  0  0  0  0  0  0  0  0  0  0  0
  -20.2570   -9.1434   23.0912 C   0  0  0  0  0  0  0  0  0  0  0  0
  -21.2595   -8.3592   23.6251 C   0  0  0  0  0  0  0  0  0  0  0  0
  -21.2318   -7.0076   23.4253 C   0  0  0  0  0  0  0  0  0  0  0  0
  -20.2106   -6.3639   22.6872 C   0  0  0  0  0  0  0  0  0  0  0  0
  -20.3141   -4.8984   22.5037 C   0  0  0  0  0  0  0  0  0  0  0  0
  -19.1683   -4.1959   22.1175 N   0  0  0  0  0  0  0  0  0  0  0  0
  -18.0798   -3.9794   22.9788 C   0  0  0  0  0  0  0  0  0  0  0  0
  -18.2590   -2.8599   23.9491 C   0  0  0  0  0  0  0  0  0  0  0  0
  -18.6805   -1.5906   23.2741 C   0  0  2  0  0  0  0  0  0  0  0  0
  -19.2016   -0.6488   24.2518 N   0  0  0  0  0  0  0  0  0  0  0  0
  -19.1033    0.7517   24.1748 C   0  0  0  0  0  0  0  0  0  0  0  0
  -19.5216    1.5719   25.2568 C   0  0  0  0  0  0  0  0  0  0  0  0
  -20.0346    1.1611   26.4310 C   0  0  0  0  0  0  0  0  0  0  0  0
  -20.3838    2.0915   27.3499 C   0  0  0  0  0  0  0  0  0  0  0  0
  -20.9681    1.9346   28.7044 C   0  0  0  0  0  0  0  0  0  0  0  0
  -22.1747    2.8513   28.7946 C   0  0  1  0  0  0  0  0  0  0  0  0
  -21.7885    4.1858   28.6652 F   0  0  0  0  0  0  0  0  0  0  0  0
  -23.0833    2.5923   27.8015 F   0  0  0  0  0  0  0  0  0  0  0  0
  -22.7956    2.7529   30.0113 F   0  0  0  0  0  0  0  0  0  0  0  0
  -19.9908    3.6051   26.5691 S   0  0  0  0  0  0  0  0  0  0  0  0
  -19.3719    2.8972   25.0346 C   0  0  0  0  0  0  0  0  0  0  0  0
  -18.8744    3.4646   23.9072 N   0  0  0  0  0  0  0  0  0  0  0  0
  -18.4825    2.6437   22.8894 C   0  0  0  0  0  0  0  0  0  0  0  0
  -17.9640    3.1414   21.6892 N   0  0  0  0  0  0  0  0  0  0  0  0
  -17.4674    2.1765   20.7034 C   0  0  0  0  0  0  0  0  0  0  0  0
  -18.6198    1.3304   23.0822 N   0  0  0  0  0  0  0  0  0  0  0  0
  -19.7306   -1.8265   22.2506 C   0  0  0  0  0  0  0  0  0  0  0  0
  -19.4703   -2.9984   21.3317 C   0  0  0  0  0  0  0  0  0  0  0  0
  -19.2209   -7.1438   22.1636 C   0  0  0  0  0  0  0  0  0  0  0  0
  -18.0756   -6.5574   21.4210 C   0  0  0  0  0  0  0  0  0  0  0  0
  1  2  3  0
  2  3  1  0
  3  4  1  0
  4  5  1  0
  5  6  1  0
  6  7  1  0
  7  8  1  0
  8  9  1  0
  9 10  1  0
 10 11  1  0
 11 12  2  0
 11 13  1  6
 11 14  2  0
 10 15  1  0
 15 16  1  0
  7 16  1  0
  6 17  1  1
  3 18  2  0
 18 19  1  0
 19 20  2  0
  4 20  1  0
 20 21  1  0
 21 22  2  0
 22 23  1  0
 23 24  1  0
 24 25  1  0
 25 26  1  0
 26 27  1  0
 27 28  1  0
 28 29  1  1
 29 30  1  0
 30 31  2  0
 31 32  1  0
 32 33  2  0
 33 34  1  0
 34 35  1  0
 35 36  1  6
 35 37  1  0
 35 38  1  0
 33 39  1  0
 31 40  1  0
 39 40  1  0
 40 41  2  0
 41 42  1  0
 42 43  1  0
 43 44  1  0
 42 45  2  0
 30 45  1  0
 28 46  1  0
 46 47  1  0
 25 47  1  0
 23 48  2  0
 19 48  1  0
 48 49  1  0
M  END
$$$$
