ziftomenib.sdf
     RDKit          3D

 49 54  0  0  1  0  0  0  0  0999 V2000
  -17.2116  -12.8372   22.6424 N   0  0  0  0  0  0  0  0  0  0  0  0
  -17.8226  -11.8503   22.7533 C   0  0  0  0  0  0  0  0  0  0  0  0
  -18.5605  -10.6416   22.9005 C   0  0  0  0  0  0  0  0  0  0  0  0
  -19.7123  -10.4272   23.5913 N   0  0  0  0  0  0  0  0  0  0  0  0
  -20.3637  -11.4866   24.3185 C   0  0  0  0  0  0  0  0  0  0  0  0
  -21.8406  -11.5693   24.0334 C   0  0  1  0  0  0  0  0  0  0  0  0
  -22.0575  -12.4855   22.9370 N   0  0  0  0  0  0  0  0  0  0  0  0
  -22.4807  -13.7806   23.3639 C   0  0  0  0  0  0  0  0  0  0  0  0
  -23.8307  -14.1747   22.8091 C   0  0  0  0  0  0  0  0  0  0  0  0
  -23.8135  -14.1066   21.3875 N   0  0  0  0  0  0  0  0  0  0  0  0
  -23.1184  -15.4550   20.6182 S   0  0  1  0  0  6  0  0  0  0  0  0
  -22.1565  -16.2166   21.5195 O   0  0  0  0  0  0  0  0  0  0  0  0
  -24.4112  -16.5640   20.0873 C   0  0  0  0  0  0  0  0  0  0  0  0
  -22.3293  -15.0705   19.3918 O   0  0  0  0  0  0  0  0  0  0  0  0
  -23.4267  -12.8332   20.8906 C   0  0  0  0  0  0  0  0  0  0  0  0
  -22.7396  -11.9151   21.8362 C   0  0  0  0  0  0  0  0  0  0  0  0
  -22.5662  -11.9488   25.2749 C   0  0  0  0  0  0  0  0  0  0  0  0
  -18.1666   -9.4342   22.3129 C   0  0  0  0  0  0  0  0  0  0  0  0
  -19.1191   -8.5212   22.6836 C   0  0  0  0  0  0  0  0  0  0  0  0
  -20.0543   -9.1383   23.4618 C   0  0  0  0  0  0  0  0  0  0  0  0
  -21.1022   -8.3838   23.9494 C   0  0  0  0  0  0  0  0  0  0  0  0
  -21.1723   -7.0546   23.6400 C   0  0  0  0  0  0  0  0  0  0  0  0
  -20.2088   -6.4050   22.8327 C   0  0  0  0  0  0  0  0  0  0  0  0
  -20.4176   -4.9702   22.5329 C   0  0  0  0  0  0  0  0  0  0  0  0
  -19.3126   -4.2065   22.1439 N   0  0  0  0  0  0  0  0  0  0  0  0
  -18.2294   -3.9419   22.9985 C   0  0  0  0  0  0  0  0  0  0  0  0
  -18.4575   -2.8416   23.9803 C   0  0  0  0  0  0  0  0  0  0  0  0
  -18.9492   -1.5897   23.3203 C   0  0  2  0  0  0  0  0  0  0  0  0
  -19.5097   -0.6845   24.3107 N   0  0  0  0  0  0  0  0  0  0  0  0
  -19.4738    0.7198   24.2515 C   0  0  0  0  0  0  0  0  0  0  0  0
  -19.8191    1.5058   25.3835 C   0  0  0  0  0  0  0  0  0  0  0  0
  -20.2020    1.0567   26.5928 C   0  0  0  0  0  0  0  0  0  0  0  0
  -20.4984    1.9580   27.5580 C   0  0  0  0  0  0  0  0  0  0  0  0
  -20.9449    1.7568   28.9583 C   0  0  0  0  0  0  0  0  0  0  0  0
  -22.2008    2.5842   29.1647 C   0  0  1  0  0  0  0  0  0  0  0  0
  -21.9467    3.9334   28.9159 F   0  0  0  0  0  0  0  0  0  0  0  0
  -23.2075    2.1969   28.3187 F   0  0  0  0  0  0  0  0  0  0  0  0
  -22.6462    2.5147   30.4578 F   0  0  0  0  0  0  0  0  0  0  0  0
  -20.2406    3.4980   26.7725 S   0  0  0  0  0  0  0  0  0  0  0  0
  -19.7430    2.8393   25.1734 C   0  0  0  0  0  0  0  0  0  0  0  0
  -19.3772    3.4436   24.0150 N   0  0  0  0  0  0  0  0  0  0  0  0
  -19.0521    2.6549   22.9495 C   0  0  0  0  0  0  0  0  0  0  0  0
  -18.6696    3.1915   21.7155 N   0  0  0  0  0  0  0  0  0  0  0  0
  -18.1970    2.2660   20.6812 C   0  0  0  0  0  0  0  0  0  0  0  0
  -19.1191    1.3343   23.1293 N   0  0  0  0  0  0  0  0  0  0  0  0
  -19.9944   -1.8703   22.3032 C   0  0  0  0  0  0  0  0  0  0  0  0
  -19.6822   -3.0193   21.3715 C   0  0  0  0  0  0  0  0  0  0  0  0
  -19.1740   -7.1553   22.3552 C   0  0  0  0  0  0  0  0  0  0  0  0
  -18.0828   -6.5544   21.5456 C   0  0  0  0  0  0  0  0  0  0  0  0
  1  2  3  0
  2  3  1  0
  3  4  1  0
  4  5  1  0
  5  6  1  0
  6  7  1  0
  7  8  1  0
  8  9  1  0
  9 10  1  0
 10 11  1  0
 11 12  2  0
 11 13  1  6
 11 14  2  0
 10 15  1  0
 15 16  1  0
  7 16  1  0
  6 17  1  1
  3 18  2  0
 18 19  1  0
 19 20  2  0
  4 20  1  0
 20 21  1  0
 21 22  2  0
 22 23  1  0
 23 24  1  0
 24 25  1  0
 25 26  1  0
 26 27  1  0
 27 28  1  0
 28 29  1  1
 29 30  1  0
 30 31  2  0
 31 32  1  0
 32 33  2  0
 33 34  1  0
 34 35  1  0
 35 36  1  6
 35 37  1  0
 35 38  1  0
 33 39  1  0
 31 40  1  0
 39 40  1  0
 40 41  2  0
 41 42  1  0
 42 43  1  0
 43 44  1  0
 42 45  2  0
 30 45  1  0
 28 46  1  0
 46 47  1  0
 25 47  1  0
 23 48  2  0
 19 48  1  0
 48 49  1  0
M  END
$$$$
