ziftomenib.sdf
     RDKit          3D

 49 54  0  0  1  0  0  0  0  0999 V2000
  -17.8424  -13.0652   20.8483 N   0  0  0  0  0  0  0  0  0  0  0  0
  -18.2437  -12.0873   21.3404 C   0  0  0  0  0  0  0  0  0  0  0  0
  -18.7299  -10.8855   21.9292 C   0  0  0  0  0  0  0  0  0  0  0  0
  -19.8690  -10.6902   22.6462 N   0  0  0  0  0  0  0  0  0  0  0  0
  -20.7826  -11.7702   22.9193 C   0  0  0  0  0  0  0  0  0  0  0  0
  -21.6253  -12.1389   21.7263 C   0  0  1  0  0  0  0  0  0  0  0  0
  -22.5342  -13.1980   22.1015 N   0  0  0  0  0  0  0  0  0  0  0  0
  -23.6049  -13.3730   21.1733 C   0  0  0  0  0  0  0  0  0  0  0  0
  -23.6366  -14.7547   20.5603 C   0  0  0  0  0  0  0  0  0  0  0  0
  -23.7063  -15.7416   21.5835 N   0  0  0  0  0  0  0  0  0  0  0  0
  -25.2632  -16.0014   22.2176 S   0  0  1  0  0  6  0  0  0  0  0  0
  -26.3321  -15.1804   21.5100 O   0  0  0  0  0  0  0  0  0  0  0  0
  -25.6775  -17.7310   22.0769 C   0  0  0  0  0  0  0  0  0  0  0  0
  -25.3538  -15.6387   23.6787 O   0  0  0  0  0  0  0  0  0  0  0  0
  -22.6521  -15.6444   22.5307 C   0  0  0  0  0  0  0  0  0  0  0  0
  -21.8923  -14.3677   22.5729 C   0  0  0  0  0  0  0  0  0  0  0  0
  -22.3114  -10.9253   21.2080 C   0  0  0  0  0  0  0  0  0  0  0  0
  -18.0494   -9.6660   21.8403 C   0  0  0  0  0  0  0  0  0  0  0  0
  -18.8244   -8.7661   22.5241 C   0  0  0  0  0  0  0  0  0  0  0  0
  -19.9291   -9.4022   23.0099 C   0  0  0  0  0  0  0  0  0  0  0  0
  -20.8394   -8.6672   23.7422 C   0  0  0  0  0  0  0  0  0  0  0  0
  -20.6105   -7.3369   23.9554 C   0  0  0  0  0  0  0  0  0  0  0  0
  -19.4692   -6.6670   23.4549 C   0  0  0  0  0  0  0  0  0  0  0  0
  -19.3548   -5.2142   23.7162 C   0  0  0  0  0  0  0  0  0  0  0  0
  -20.1980   -4.3460   23.0156 N   0  0  0  0  0  0  0  0  0  0  0  0
  -19.7228   -3.2389   22.2932 C   0  0  0  0  0  0  0  0  0  0  0  0
  -19.4142   -2.0349   23.1191 C   0  0  0  0  0  0  0  0  0  0  0  0
  -20.5568   -1.6543   24.0102 C   0  0  2  0  0  0  0  0  0  0  0  0
  -20.1048   -0.7398   25.0465 N   0  0  0  0  0  0  0  0  0  0  0  0
  -19.5061    0.5138   24.8297 C   0  0  0  0  0  0  0  0  0  0  0  0
  -19.5199    1.5123   25.8404 C   0  0  0  0  0  0  0  0  0  0  0  0
  -20.0660    1.4138   27.0662 C   0  0  0  0  0  0  0  0  0  0  0  0
  -19.9866    2.4759   27.9015 C   0  0  0  0  0  0  0  0  0  0  0  0
  -20.4935    2.6528   29.2843 C   0  0  0  0  0  0  0  0  0  0  0  0
  -21.7071    3.5623   29.2172 C   0  0  1  0  0  0  0  0  0  0  0  0
  -22.6489    3.0594   28.3188 F   0  0  0  0  0  0  0  0  0  0  0  0
  -22.3253    3.6730   30.4356 F   0  0  0  0  0  0  0  0  0  0  0  0
  -21.3791    4.8117   28.7623 F   0  0  0  0  0  0  0  0  0  0  0  0
  -19.1212    3.6700   26.9633 S   0  0  0  0  0  0  0  0  0  0  0  0
  -18.9110    2.6659   25.4847 C   0  0  0  0  0  0  0  0  0  0  0  0
  -18.3187    2.9187   24.2906 N   0  0  0  0  0  0  0  0  0  0  0  0
  -18.3253    1.9345   23.3449 C   0  0  0  0  0  0  0  0  0  0  0  0
  -17.7440    2.1093   22.0844 N   0  0  0  0  0  0  0  0  0  0  0  0
  -17.7906    0.9847   21.1449 C   0  0  0  0  0  0  0  0  0  0  0  0
  -18.9203    0.7850   23.6696 N   0  0  0  0  0  0  0  0  0  0  0  0
  -21.1672   -2.8373   24.6687 C   0  0  0  0  0  0  0  0  0  0  0  0
  -21.4177   -4.0148   23.7540 C   0  0  0  0  0  0  0  0  0  0  0  0
  -18.5716   -7.3990   22.7336 C   0  0  0  0  0  0  0  0  0  0  0  0
  -17.3154   -6.8005   22.2131 C   0  0  0  0  0  0  0  0  0  0  0  0
  1  2  3  0
  2  3  1  0
  3  4  1  0
  4  5  1  0
  5  6  1  0
  6  7  1  0
  7  8  1  0
  8  9  1  0
  9 10  1  0
 10 11  1  0
 11 12  2  0
 11 13  1  1
 11 14  2  0
 10 15  1  0
 15 16  1  0
  7 16  1  0
  6 17  1  1
  3 18  2  0
 18 19  1  0
 19 20  2  0
  4 20  1  0
 20 21  1  0
 21 22  2  0
 22 23  1  0
 23 24  1  0
 24 25  1  0
 25 26  1  0
 26 27  1  0
 27 28  1  0
 28 29  1  1
 29 30  1  0
 30 31  2  0
 31 32  1  0
 32 33  2  0
 33 34  1  0
 34 35  1  0
 35 36  1  6
 35 37  1  0
 35 38  1  0
 33 39  1  0
 31 40  1  0
 39 40  1  0
 40 41  2  0
 41 42  1  0
 42 43  1  0
 43 44  1  0
 42 45  2  0
 30 45  1  0
 28 46  1  0
 46 47  1  0
 25 47  1  0
 23 48  2  0
 19 48  1  0
 48 49  1  0
M  END
$$$$
