NS-C-142.sdf
     RDKit          3D

 26 29  0  0  0  0  0  0  0  0999 V2000
  -21.0697    0.2549   23.0431 N   0  0  0  0  0  0  0  0  0  0  0  0
  -21.8995    0.3490   21.8461 C   0  0  0  0  0  0  0  0  0  0  0  0
  -21.5512   -0.9134   21.0658 C   0  0  0  0  0  0  0  0  0  0  0  0
  -21.3277   -1.9481   22.1627 C   0  0  2  0  0  0  0  0  0  0  0  0
  -20.6268   -1.1269   23.2700 C   0  0  0  0  0  0  0  0  0  0  0  0
  -21.9446    1.2879   25.0557 C   0  0  0  0  0  0  0  0  0  0  0  0
  -21.8948    2.2682   26.0547 C   0  0  0  0  0  0  0  0  0  0  0  0
  -20.8927    3.2248   26.0272 C   0  0  0  0  0  0  0  0  0  0  0  0
  -19.9409    3.2188   25.0247 C   0  0  0  0  0  0  0  0  0  0  0  0
  -20.0020    2.2370   24.0361 C   0  0  0  0  0  0  0  0  0  0  0  0
  -21.0050    1.2414   24.0078 C   0  0  0  0  0  0  0  0  0  0  0  0
  -20.8445    4.1616   26.9827 F   0  0  0  0  0  0  0  0  0  0  0  0
  -19.0565    2.2826   23.0826 F   0  0  0  0  0  0  0  0  0  0  0  0
  -20.4720   -4.2346   22.4478 C   0  0  0  0  0  0  0  0  0  0  0  0
  -20.8857   -4.3212   23.5974 O   0  0  0  0  0  0  0  0  0  0  0  0
  -20.5791   -3.0985   21.6792 N   0  0  0  0  0  0  0  0  0  0  0  0
  -20.1462   -3.0637   20.7956 H   0  0  0  0  0  0  0  0  0  0  0  0
  -19.8537   -5.4056   21.7563 C   0  0  0  0  0  0  0  0  0  0  0  0
  -20.2741   -5.8083   20.5395 C   0  0  0  0  0  0  0  0  0  0  0  0
  -19.6375   -6.8878   19.9349 N   0  0  0  0  0  0  0  0  0  0  0  0
  -18.5828   -7.5842   20.5028 C   0  0  0  0  0  0  0  0  0  0  0  0
  -18.1166   -7.1458   21.7707 C   0  0  0  0  0  0  0  0  0  0  0  0
  -18.7186   -6.0990   22.3701 C   0  0  0  0  0  0  0  0  0  0  0  0
  -19.8587   -7.4995   18.7335 C   0  0  0  0  0  0  0  0  0  0  0  0
  -19.0217   -8.5007   18.5772 N   0  0  0  0  0  0  0  0  0  0  0  0
  -18.2148   -8.5542   19.6946 N   0  0  0  0  0  0  0  0  0  0  0  0
 14 18  1  0
 14 15  2  0
 18 19  2  0
 19 20  1  0
 20 21  1  0
 21 22  1  0
 22 23  2  0
 23 18  1  0
 20 24  1  0
 24 25  2  0
 25 26  1  0
 26 21  2  0
  6  7  2  0
  7  8  1  0
  8  9  2  0
  9 10  1  0
 10 11  2  0
 11  6  1  0
  8 12  1  0
 11  1  1  0
  1  2  1  0
  2  3  1  0
  3  4  1  0
  4  5  1  0
  5  1  1  0
  4 16  1  6
 14 16  1  0
 10 13  1  0
 16 17  1  0
M  END
>  <minimizedAffinity>  (1) 
-6.86129

>  <CNNscore>  (1) 
0.6090806127

>  <CNNaffinity>  (1) 
5.5053458214

>  <CNN_VS>  (1) 
3.3531994820

>  <CNNaffinity_variance>  (1) 
0.1510464996

$$$$
