7uj4
     RDKit          3D

 45 49  0  0  0  0  0  0  0  0999 V2000
  -25.1332    0.9854   20.6518 N   0  0  0  0  0  0  0  0  0  0  0  0
  -28.3234    1.8123   24.2519 N   0  0  0  0  0  0  0  0  0  0  0  0
  -26.1496    0.3790   21.4951 C   0  0  0  0  0  0  0  0  0  0  0  0
  -25.2299    2.3787   21.0712 C   0  0  0  0  0  0  0  0  0  0  0  0
  -26.2912    1.8355   22.1169 C   0  0  0  0  0  0  0  0  0  0  0  0
  -25.9084    1.9235   23.5937 C   0  0  0  0  0  0  0  0  0  0  0  0
  -26.9433    1.2453   24.4619 C   0  0  0  0  0  0  0  0  0  0  0  0
  -27.6782    2.4473   21.9404 C   0  0  0  0  0  0  0  0  0  0  0  0
  -28.7152    1.7767   22.8070 C   0  0  0  0  0  0  0  0  0  0  0  0
  -22.4120   -0.9695   18.3302 N   0  0  0  0  0  0  0  0  0  0  0  0
  -24.6378   -0.2702   18.7744 N   0  0  0  0  0  0  0  0  0  0  0  0
  -22.8737    0.3552   20.1947 C   0  0  0  0  0  0  0  0  0  0  0  0
  -21.9885   -0.3315   19.4026 C   0  0  0  0  0  0  0  0  0  0  0  0
  -23.7103   -0.8726   18.0225 C   0  0  0  0  0  0  0  0  0  0  0  0
  -24.2194    0.3806   19.8512 C   0  0  0  0  0  0  0  0  0  0  0  0
  -22.4031    1.0003   21.2887 O   0  0  0  0  0  0  0  0  0  0  0  0
  -20.7207    2.2489   22.4441 C   0  0  0  0  0  0  0  0  0  0  0  0
  -19.3734    2.5902   22.5742 C   0  0  0  0  0  0  0  0  0  0  0  0
  -18.4608    1.9882   21.7437 C   0  0  0  0  0  0  0  0  0  0  0  0
  -18.7915    1.0720   20.7731 C   0  0  0  0  0  0  0  0  0  0  0  0
  -20.1275    0.7521   20.6264 C   0  0  0  0  0  0  0  0  0  0  0  0
  -21.0723    1.3674   21.4188 C   0  0  0  0  0  0  0  0  0  0  0  0
  -17.1536    2.3049   21.8659 F   0  0  0  0  0  0  0  0  0  0  0  0
  -21.5923    3.0661   24.6635 N   0  0  0  0  0  0  0  0  0  0  0  0
  -22.8906    3.0462   22.8639 O   0  0  0  0  0  0  0  0  0  0  0  0
  -21.7977    2.8088   23.3591 C   0  0  0  0  0  0  0  0  0  0  0  0
  -20.6813    1.3335   26.1281 C   0  0  0  0  0  0  0  0  0  0  0  0
  -20.3988    2.6277   25.3980 C   0  0  0  0  0  0  0  0  0  0  0  0
  -19.8798    3.7244   26.2920 C   0  0  0  0  0  0  0  0  0  0  0  0
  -22.6139    3.7381   25.4801 C   0  0  0  0  0  0  0  0  0  0  0  0
  -23.6649    2.8066   26.0068 C   0  0  0  0  0  0  0  0  0  0  0  0
  -29.3355    1.0300   25.0309 C   0  0  0  0  0  0  0  0  0  0  0  0
  -29.3873    1.3939   26.5152 C   0  0  1  0  0  0  0  0  0  0  0  0
  -29.8660    0.2311   27.3967 C   0  0  0  0  0  0  0  0  0  0  0  0
  -29.8858    0.5850   28.8743 C   0  0  0  0  0  0  0  0  0  0  0  0
  -28.0437    1.9338   27.0001 C   0  0  0  0  0  0  0  0  0  0  0  0
  -28.1132    2.3292   28.4679 C   0  0  0  0  0  0  0  0  0  0  0  0
  -28.5549    1.1507   29.3206 C   0  0  1  0  0  0  0  0  0  0  0  0
  -28.6252    1.5828   30.7273 N   0  0  0  0  0  0  0  0  0  0  0  0
  -28.1282    2.4724   30.7728 H   0  0  0  0  0  0  0  0  0  0  0  0
  -28.0539    0.6859   31.9637 S   0  0  0  0  0  0  0  0  0  0  0  0
  -26.7973    0.1810   31.4984 O   0  0  0  0  0  0  0  0  0  0  0  0
  -28.0864    1.5200   33.1315 O   0  0  0  0  0  0  0  0  0  0  0  0
  -29.2024   -0.6666   32.1567 C   0  0  0  0  0  0  0  0  0  0  0  0
  -30.5194   -0.2458   32.7767 C   0  0  0  0  0  0  0  0  0  0  0  0
 27 28  1  0
 24 30  1  0
 24 26  1  0
 41 42  2  0
 41 43  2  0
 41 44  1  0
 24 28  1  0
 28 29  1  0
 10 14  2  0
 16 12  1  0
 11 15  2  0
 30 31  1  0
  1  3  1  0
  1  4  1  0
  2 32  1  0
 25 26  2  0
 26 17  1  0
 41 39  1  0
 17 18  2  0
 17 22  1  0
 18 19  1  0
 19 20  2  0
 19 23  1  0
 20 21  1  0
 21 22  2  0
 16 22  1  0
 12 13  2  0
 12 15  1  0
 10 13  1  0
 11 14  1  0
  1 15  1  0
  3  5  1  0
  4  5  1  0
  5  6  1  0
  5  8  1  0
  6  7  1  0
  2  7  1  0
  8  9  1  0
  2  9  1  0
 33 32  1  6
 33 34  1  0
 33 36  1  0
 34 35  1  0
 35 38  1  0
 36 37  1  0
 37 38  1  0
 38 39  1  1
 44 45  1  0
 39 40  1  0
M  END
>  <minimizedAffinity>  (1) 
-8.35454

>  <CNNscore>  (1) 
0.2605673075

>  <CNNaffinity>  (1) 
6.7191238403

>  <CNN_VS>  (1) 
1.7507840395

>  <CNNaffinity_variance>  (1) 
0.8860438466

$$$$
