ziftomenib.sdf
     RDKit          3D

 51 56  0  0  0  0  0  0  0  0999 V2000
  -22.2483    0.0350   19.3608 C   0  0  0  0  0  0  0  0  0  0  0  0
  -20.1238    2.9183   24.3268 C   0  0  0  0  0  0  0  0  0  0  0  0
  -21.4912    2.7700   24.2864 N   0  0  0  0  0  0  0  0  0  0  0  0
  -19.6078    2.3164   23.2014 C   0  0  0  0  0  0  0  0  0  0  0  0
  -20.6892    1.7928   22.4324 C   0  0  0  0  0  0  0  0  0  0  0  0
  -21.8604    2.0891   23.1383 C   0  0  0  0  0  0  0  0  0  0  0  0
  -23.1231    1.7120   22.6666 C   0  0  0  0  0  0  0  0  0  0  0  0
  -23.1895    1.0366   21.4491 C   0  0  0  0  0  0  0  0  0  0  0  0
  -22.0411    0.7300   20.7009 C   0  0  0  0  0  0  0  0  0  0  0  0
  -20.7589    1.1010   21.1897 C   0  0  0  0  0  0  0  0  0  0  0  0
  -19.5161    0.7768   20.4026 C   0  0  0  0  0  0  0  0  0  0  0  0
  -18.8056    4.1857   26.1491 N   0  0  0  0  0  0  0  0  0  0  0  0
  -19.3988    3.5860   25.3543 C   0  0  0  0  0  0  0  0  0  0  0  0
  -22.4157    3.3311   25.2697 C   0  0  0  0  0  0  0  0  0  0  0  0
  -22.5320    2.5095   26.5871 C   0  0  2  0  0  0  0  0  0  0  0  0
  -22.9030    1.0542   26.2361 C   0  0  0  0  0  0  0  0  0  0  0  0
  -23.5333    3.0431   27.5482 N   0  0  0  0  0  0  0  0  0  0  0  0
  -24.9226    2.6089   27.2440 C   0  0  0  0  0  0  0  0  0  0  0  0
  -25.5259    1.5818   28.2262 C   0  0  0  0  0  0  0  0  0  0  0  0
  -25.5147    2.1035   29.6160 N   0  0  0  0  0  0  0  0  0  0  0  0
  -24.4004    3.0340   29.9227 C   0  0  0  0  0  0  0  0  0  0  0  0
  -23.2106    2.8084   28.9698 C   0  0  0  0  0  0  0  0  0  0  0  0
  -26.0820    1.0929   30.8367 S   0  0  0  0  0  0  0  0  0  0  0  0
  -25.7797    1.7162   32.1072 O   0  0  0  0  0  0  0  0  0  0  0  0
  -27.8502    1.1519   30.6074 C   0  0  0  0  0  0  0  0  0  0  0  0
  -25.6435   -0.2532   30.5355 O   0  0  0  0  0  0  0  0  0  0  0  0
  -23.3570   -0.9339   19.3807 N   0  0  0  0  0  0  0  0  0  0  0  0
  -23.1017   -2.0964   20.2413 C   0  0  0  0  0  0  0  0  0  0  0  0
  -22.1022   -3.0954   19.6573 C   0  0  0  0  0  0  0  0  0  0  0  0
  -22.5076   -3.5321   18.2451 C   0  0  0  0  0  0  0  0  0  0  0  0
  -22.7607   -2.3033   17.3663 C   0  0  0  0  0  0  0  0  0  0  0  0
  -23.7546   -1.3565   18.0330 C   0  0  0  0  0  0  0  0  0  0  0  0
  -21.4255   -4.3503   17.6896 N   0  0  0  0  0  0  0  0  0  0  0  0
  -20.6602   -3.9402   17.2255 H   0  0  0  0  0  0  0  0  0  0  0  0
  -21.5234   -5.7337   17.8451 C   0  0  0  0  0  0  0  0  0  0  0  0
  -20.9108   -6.4049   18.9186 C   0  0  0  0  0  0  0  0  0  0  0  0
  -20.1154   -5.9697   20.0343 C   0  0  0  0  0  0  0  0  0  0  0  0
  -19.7199   -7.0091   20.8533 C   0  0  0  0  0  0  0  0  0  0  0  0
  -20.3109   -8.5110   20.2791 S   0  0  0  0  0  0  0  0  0  0  0  0
  -21.0834   -7.7761   18.9490 C   0  0  0  0  0  0  0  0  0  0  0  0
  -21.7696   -8.5152   18.0676 N   0  0  0  0  0  0  0  0  0  0  0  0
  -22.3244   -7.7977   17.0929 C   0  0  0  0  0  0  0  0  0  0  0  0
  -22.2294   -6.4668   16.9566 N   0  0  0  0  0  0  0  0  0  0  0  0
  -23.0494   -8.5333   16.1603 N   0  0  0  0  0  0  0  0  0  0  0  0
  -22.8882   -8.0705   14.7996 C   0  0  0  0  0  0  0  0  0  0  0  0
  -23.6193   -9.2981   16.4042 H   0  0  0  0  0  0  0  0  0  0  0  0
  -18.8822   -6.9497   22.1001 C   0  0  0  0  0  0  0  0  0  0  0  0
  -17.5902   -7.7390   21.9891 C   0  0  0  0  0  0  0  0  0  0  0  0
  -17.2323   -7.9320   20.6992 F   0  0  0  0  0  0  0  0  0  0  0  0
  -16.5655   -7.1318   22.6244 F   0  0  0  0  0  0  0  0  0  0  0  0
  -17.7426   -8.9630   22.5486 F   0  0  0  0  0  0  0  0  0  0  0  0
 12 13  3  0
 13  2  1  0
  2  3  1  0
  3 14  1  0
 14 15  1  0
 15 17  1  0
 17 18  1  0
 18 19  1  0
 19 20  1  0
 20 23  1  0
 23 24  2  0
 23 25  1  0
 23 26  2  0
 20 21  1  0
 21 22  1  0
 17 22  1  0
 15 16  1  6
  2  4  2  0
  4  5  1  0
  5  6  2  0
  3  6  1  0
  6  7  1  0
  7  8  2  0
  8  9  1  0
  9  1  1  0
  1 27  1  0
 27 28  1  0
 28 29  1  0
 29 30  1  0
 30 33  1  0
 33 35  1  0
 35 36  2  0
 36 37  1  0
 37 38  2  0
 38 47  1  0
 47 48  1  0
 48 49  1  0
 48 50  1  0
 48 51  1  0
 38 39  1  0
 36 40  1  0
 39 40  1  0
 40 41  2  0
 41 42  1  0
 42 44  1  0
 44 45  1  0
 42 43  2  0
 35 43  1  0
 30 31  1  0
 31 32  1  0
 27 32  1  0
  9 10  2  0
  5 10  1  0
 10 11  1  0
 33 34  1  0
 44 46  1  0
M  END
>  <minimizedAffinity>  (1) 
-8.58276

>  <CNNscore>  (1) 
0.1412510127

>  <CNNaffinity>  (1) 
6.8483672142

>  <CNN_VS>  (1) 
0.9673388004

>  <CNNaffinity_variance>  (1) 
0.7219529152

$$$$
