7uj4
     RDKit          3D

 44 48  0  0  0  0  0  0  0  0999 V2000
  -23.6071    4.2399   24.6907 C   0  0  0  0  0  0  0  0  0  0  0  0
  -23.4740    1.7942   24.8580 N   0  0  0  0  0  0  0  0  0  0  0  0
  -23.5843    0.3558   26.6228 O   0  0  0  0  0  0  0  0  0  0  0  0
  -19.8728  -12.1983   22.2956 S   0  0  1  0  0  6  0  0  0  0  0  0
  -22.8897    2.9863   24.2909 C   0  0  1  0  0  0  0  0  0  0  0  0
  -17.9098    3.2964   23.3333 N   0  0  0  0  0  0  0  0  0  0  0  0
  -20.1777    1.3259   25.3668 O   0  0  0  0  0  0  0  0  0  0  0  0
  -22.9322    2.8293   22.7641 C   0  0  0  0  0  0  0  0  0  0  0  0
  -18.5170    1.3851   22.2013 N   0  0  0  0  0  0  0  0  0  0  0  0
  -21.1745  -12.5094   21.6117 O   0  0  0  0  0  0  0  0  0  0  0  0
  -24.4985    1.0694   24.1187 C   0  0  0  0  0  0  0  0  0  0  0  0
  -20.0142   -0.2684   23.1370 N   0  0  0  0  0  0  0  0  0  0  0  0
  -18.7663  -12.6063   21.3657 O   0  0  0  0  0  0  0  0  0  0  0  0
  -25.7729    0.9127   24.8978 C   0  0  0  0  0  0  0  0  0  0  0  0
  -19.6323   -5.1631   22.8463 N   0  0  0  0  0  0  0  0  0  0  0  0
  -23.0283    1.3512   26.1291 C   0  0  0  0  0  0  0  0  0  0  0  0
  -19.7621  -10.5041   22.5528 N   0  0  0  0  0  0  0  0  0  0  0  0
  -21.9567    2.0689   26.7900 C   0  0  0  0  0  0  0  0  0  0  0  0
  -22.2698    2.8413   27.9137 C   0  0  0  0  0  0  0  0  0  0  0  0
  -21.3298    3.5312   28.6324 C   0  0  0  0  0  0  0  0  0  0  0  0
  -19.9922    3.4887   28.2619 C   0  0  0  0  0  0  0  0  0  0  0  0
  -19.6716    2.7381   27.1660 C   0  0  0  0  0  0  0  0  0  0  0  0
  -20.6361    2.0319   26.4293 C   0  0  0  0  0  0  0  0  0  0  0  0
  -19.3718    1.7809   24.3469 C   0  0  0  0  0  0  0  0  0  0  0  0
  -18.6576    2.9652   24.3903 C   0  0  0  0  0  0  0  0  0  0  0  0
  -17.8296    2.5232   22.2395 C   0  0  0  0  0  0  0  0  0  0  0  0
  -19.3072    0.9533   23.2191 C   0  0  0  0  0  0  0  0  0  0  0  0
  -20.4526   -1.0999   22.0333 C   0  0  0  0  0  0  0  0  0  0  0  0
  -20.6132   -1.2406   24.0184 C   0  0  0  0  0  0  0  0  0  0  0  0
  -20.2671   -2.2820   22.9785 C   0  0  2  0  0  0  0  0  0  0  0  0
  -18.8785   -2.8345   23.0670 C   0  0  0  0  0  0  0  0  0  0  0  0
  -18.9391   -4.2063   23.7103 C   0  0  0  0  0  0  0  0  0  0  0  0
  -21.2193   -3.4135   22.7919 C   0  0  0  0  0  0  0  0  0  0  0  0
  -20.4581   -4.4754   21.9475 C   0  0  0  0  0  0  0  0  0  0  0  0
  -18.7059   -6.1267   22.4339 C   0  0  0  0  0  0  0  0  0  0  0  0
  -19.0190   -7.5770   22.6778 C   0  0  1  0  0  0  0  0  0  0  0  0
  -17.7966   -8.4079   22.4574 C   0  0  0  0  0  0  0  0  0  0  0  0
  -17.6259   -9.5803   23.3524 C   0  0  0  0  0  0  0  0  0  0  0  0
  -19.8129   -7.7762   23.8837 C   0  0  0  0  0  0  0  0  0  0  0  0
  -19.6823   -9.1268   24.5391 C   0  0  0  0  0  0  0  0  0  0  0  0
  -18.9870  -10.1467   23.6966 C   0  0  1  0  0  0  0  0  0  0  0  0
  -19.8280  -13.1133   23.8092 C   0  0  0  0  0  0  0  0  0  0  0  0
  -18.4077  -13.3245   24.2264 C   0  0  0  0  0  0  0  0  0  0  0  0
  -21.6404    4.2808   29.7264 F   0  0  0  0  0  0  0  0  0  0  0  0
  5  1  1  6
  2 11  1  0
  2 16  1  0
  4 10  2  0
  4 13  2  0
  4 42  1  1
  2  5  1  0
  5  8  1  0
  6 26  2  0
  7 24  1  0
  9 27  2  0
 11 14  1  0
 12 28  1  0
 12 29  1  0
 15 35  1  0
  3 16  2  0
 16 18  1  0
  4 17  1  0
 18 19  2  0
 18 23  1  0
 19 20  1  0
 20 21  2  0
 20 44  1  0
 21 22  1  0
 22 23  2  0
  7 23  1  0
 24 25  2  0
 24 27  1  0
  6 25  1  0
  9 26  1  0
 12 27  1  0
 30 28  1  6
 29 30  1  0
 30 31  1  0
 30 33  1  0
 31 32  1  0
 15 32  1  0
 33 34  1  0
 15 34  1  0
 36 35  1  1
 36 37  1  0
 36 39  1  0
 37 38  1  0
 38 41  1  0
 39 40  1  0
 40 41  1  0
 41 17  1  6
 42 43  1  0
M  END
$$$$
