7uj4
     RDKit          3D

 44 48  0  0  0  0  0  0  0  0999 V2000
  -25.0241    2.0116   23.0481 C   0  0  0  0  0  0  0  0  0  0  0  0
  -23.9924    2.2230   25.2658 N   0  0  0  0  0  0  0  0  0  0  0  0
  -23.5992    0.1421   26.1091 O   0  0  0  0  0  0  0  0  0  0  0  0
  -19.3275  -11.9423   23.5576 S   0  0  1  0  0  6  0  0  0  0  0  0
  -25.1112    1.7077   24.5132 C   0  0  1  0  0  0  0  0  0  0  0  0
  -18.0480    3.1193   23.5045 N   0  0  0  0  0  0  0  0  0  0  0  0
  -20.3961    1.0810   25.3737 O   0  0  0  0  0  0  0  0  0  0  0  0
  -26.3814    2.3409   25.0991 C   0  0  0  0  0  0  0  0  0  0  0  0
  -18.7560    1.3523   22.2084 N   0  0  0  0  0  0  0  0  0  0  0  0
  -20.1182  -12.0843   24.8279 O   0  0  0  0  0  0  0  0  0  0  0  0
  -23.6521    3.6366   25.1785 C   0  0  0  0  0  0  0  0  0  0  0  0
  -20.3262   -0.3064   23.0050 N   0  0  0  0  0  0  0  0  0  0  0  0
  -20.0447  -12.7193   22.4910 O   0  0  0  0  0  0  0  0  0  0  0  0
  -22.5119    3.9005   24.2372 C   0  0  0  0  0  0  0  0  0  0  0  0
  -20.1902   -5.1365   22.0885 N   0  0  0  0  0  0  0  0  0  0  0  0
  -23.2492    1.3339   26.0830 C   0  0  0  0  0  0  0  0  0  0  0  0
  -19.2999  -10.2896   23.0926 N   0  0  0  0  0  0  0  0  0  0  0  0
  -22.1270    1.8465   26.8435 C   0  0  0  0  0  0  0  0  0  0  0  0
  -22.3890    2.5130   28.0453 C   0  0  0  0  0  0  0  0  0  0  0  0
  -21.4024    3.0060   28.8575 C   0  0  0  0  0  0  0  0  0  0  0  0
  -20.0665    2.8585   28.5082 C   0  0  0  0  0  0  0  0  0  0  0  0
  -19.7955    2.2095   27.3367 C   0  0  0  0  0  0  0  0  0  0  0  0
  -20.8078    1.7052   26.5043 C   0  0  0  0  0  0  0  0  0  0  0  0
  -19.5757    1.5889   24.3909 C   0  0  0  0  0  0  0  0  0  0  0  0
  -18.8040    2.7283   24.5349 C   0  0  0  0  0  0  0  0  0  0  0  0
  -18.0133    2.4475   22.3434 C   0  0  0  0  0  0  0  0  0  0  0  0
  -19.5595    0.8669   23.1911 C   0  0  0  0  0  0  0  0  0  0  0  0
  -20.8677   -0.9746   21.8379 C   0  0  0  0  0  0  0  0  0  0  0  0
  -20.9162   -1.3581   23.7967 C   0  0  0  0  0  0  0  0  0  0  0  0
  -20.6814   -2.2727   22.6160 C   0  0  2  0  0  0  0  0  0  0  0  0
  -19.3171   -2.8852   22.5454 C   0  0  0  0  0  0  0  0  0  0  0  0
  -19.4030   -4.3238   23.0171 C   0  0  0  0  0  0  0  0  0  0  0  0
  -21.6945   -3.3339   22.3535 C   0  0  0  0  0  0  0  0  0  0  0  0
  -21.0351   -4.3097   21.3369 C   0  0  0  0  0  0  0  0  0  0  0  0
  -19.3357   -6.0756   21.5012 C   0  0  0  0  0  0  0  0  0  0  0  0
  -19.1757   -7.4162   22.1632 C   0  0  1  0  0  0  0  0  0  0  0  0
  -18.1829   -8.2422   21.4113 C   0  0  0  0  0  0  0  0  0  0  0  0
  -17.3117   -9.1281   22.2242 C   0  0  0  0  0  0  0  0  0  0  0  0
  -19.0665   -7.3079   23.6125 C   0  0  0  0  0  0  0  0  0  0  0  0
  -18.3338   -8.4305   24.3006 C   0  0  0  0  0  0  0  0  0  0  0  0
  -18.0859   -9.6190   23.4290 C   0  0  1  0  0  0  0  0  0  0  0  0
  -17.7065  -12.5843   23.8582 C   0  0  0  0  0  0  0  0  0  0  0  0
  -17.3887  -13.6391   22.8470 C   0  0  0  0  0  0  0  0  0  0  0  0
  -21.6635    3.6531   30.0272 F   0  0  0  0  0  0  0  0  0  0  0  0
  5  1  1  6
  2 11  1  0
  2 16  1  0
  4 10  2  0
  4 13  2  0
  4 42  1  1
  2  5  1  0
  5  8  1  0
  6 26  2  0
  7 24  1  0
  9 27  2  0
 11 14  1  0
 12 28  1  0
 12 29  1  0
 15 35  1  0
  3 16  2  0
 16 18  1  0
  4 17  1  0
 18 19  2  0
 18 23  1  0
 19 20  1  0
 20 21  2  0
 20 44  1  0
 21 22  1  0
 22 23  2  0
  7 23  1  0
 24 25  2  0
 24 27  1  0
  6 25  1  0
  9 26  1  0
 12 27  1  0
 30 28  1  6
 29 30  1  0
 30 31  1  0
 30 33  1  0
 31 32  1  0
 15 32  1  0
 33 34  1  0
 15 34  1  0
 36 35  1  6
 36 37  1  0
 36 39  1  0
 37 38  1  0
 38 41  1  0
 39 40  1  0
 40 41  1  0
 41 17  1  6
 42 43  1  0
M  END
$$$$
