7uj4
     RDKit          3D

 44 48  0  0  0  0  0  0  0  0999 V2000
  -24.7489    1.6882   22.8651 C   0  0  0  0  0  0  0  0  0  0  0  0
  -23.7496    2.0753   25.0740 N   0  0  0  0  0  0  0  0  0  0  0  0
  -23.2711    0.1018   26.1092 O   0  0  0  0  0  0  0  0  0  0  0  0
  -19.4181  -11.9852   22.9625 S   0  0  1  0  0  6  0  0  0  0  0  0
  -24.8147    1.4336   24.3406 C   0  0  1  0  0  0  0  0  0  0  0  0
  -17.8512    3.1904   23.3891 N   0  0  0  0  0  0  0  0  0  0  0  0
  -20.1015    1.1816   25.4047 O   0  0  0  0  0  0  0  0  0  0  0  0
  -26.1389    1.9723   24.9008 C   0  0  0  0  0  0  0  0  0  0  0  0
  -18.6492    1.4232   22.1467 N   0  0  0  0  0  0  0  0  0  0  0  0
  -20.2243  -12.1974   24.2131 O   0  0  0  0  0  0  0  0  0  0  0  0
  -23.4789    3.4911   24.8645 C   0  0  0  0  0  0  0  0  0  0  0  0
  -20.1833   -0.2180   23.0435 N   0  0  0  0  0  0  0  0  0  0  0  0
  -20.1310  -12.6868   21.8421 O   0  0  0  0  0  0  0  0  0  0  0  0
  -22.0179    3.8230   24.9709 C   0  0  0  0  0  0  0  0  0  0  0  0
  -20.1526   -5.0357   22.0555 N   0  0  0  0  0  0  0  0  0  0  0  0
  -22.9905    1.3065   25.9921 C   0  0  0  0  0  0  0  0  0  0  0  0
  -19.3688  -10.3072   22.6015 N   0  0  0  0  0  0  0  0  0  0  0  0
  -21.9329    1.9500   26.7455 C   0  0  0  0  0  0  0  0  0  0  0  0
  -22.2827    2.6931   27.8781 C   0  0  0  0  0  0  0  0  0  0  0  0
  -21.3611    3.3127   28.6799 C   0  0  0  0  0  0  0  0  0  0  0  0
  -20.0060    3.2239   28.3903 C   0  0  0  0  0  0  0  0  0  0  0  0
  -19.6495    2.5013   27.2867 C   0  0  0  0  0  0  0  0  0  0  0  0
  -20.5951    1.8672   26.4648 C   0  0  0  0  0  0  0  0  0  0  0  0
  -19.3365    1.6776   24.3725 C   0  0  0  0  0  0  0  0  0  0  0  0
  -18.5481    2.8110   24.4645 C   0  0  0  0  0  0  0  0  0  0  0  0
  -17.8907    2.5126   22.2316 C   0  0  0  0  0  0  0  0  0  0  0  0
  -19.3972    0.9496   23.1777 C   0  0  0  0  0  0  0  0  0  0  0  0
  -20.8275   -0.8681   21.9193 C   0  0  0  0  0  0  0  0  0  0  0  0
  -20.7077   -1.2778   23.8697 C   0  0  0  0  0  0  0  0  0  0  0  0
  -20.5811   -2.1773   22.6612 C   0  0  2  0  0  0  0  0  0  0  0  0
  -19.2314   -2.7944   22.4643 C   0  0  0  0  0  0  0  0  0  0  0  0
  -19.2835   -4.2389   22.9228 C   0  0  0  0  0  0  0  0  0  0  0  0
  -21.6188   -3.2308   22.4738 C   0  0  0  0  0  0  0  0  0  0  0  0
  -21.0553   -4.1954   21.3911 C   0  0  0  0  0  0  0  0  0  0  0  0
  -19.3572   -5.9703   21.3839 C   0  0  0  0  0  0  0  0  0  0  0  0
  -19.2431   -7.3581   21.9512 C   0  0  1  0  0  0  0  0  0  0  0  0
  -18.0855   -8.0705   21.3301 C   0  0  0  0  0  0  0  0  0  0  0  0
  -17.3261   -8.9906   22.2140 C   0  0  0  0  0  0  0  0  0  0  0  0
  -19.4034   -7.3786   23.3996 C   0  0  0  0  0  0  0  0  0  0  0  0
  -18.7440   -8.5285   24.1162 C   0  0  0  0  0  0  0  0  0  0  0  0
  -18.2756   -9.6210   23.2104 C   0  0  1  0  0  0  0  0  0  0  0  0
  -17.8070  -12.6618   23.2396 C   0  0  0  0  0  0  0  0  0  0  0  0
  -17.1662  -12.9861   21.9281 C   0  0  0  0  0  0  0  0  0  0  0  0
  -21.7075    4.0339   29.7822 F   0  0  0  0  0  0  0  0  0  0  0  0
  5  1  1  6
  2 11  1  0
  2 16  1  0
  4 10  2  0
  4 13  2  0
  4 42  1  1
  2  5  1  0
  5  8  1  0
  6 26  2  0
  7 24  1  0
  9 27  2  0
 11 14  1  0
 12 28  1  0
 12 29  1  0
 15 35  1  0
  3 16  2  0
 16 18  1  0
  4 17  1  0
 18 19  2  0
 18 23  1  0
 19 20  1  0
 20 21  2  0
 20 44  1  0
 21 22  1  0
 22 23  2  0
  7 23  1  0
 24 25  2  0
 24 27  1  0
  6 25  1  0
  9 26  1  0
 12 27  1  0
 30 28  1  6
 29 30  1  0
 30 31  1  0
 30 33  1  0
 31 32  1  0
 15 32  1  0
 33 34  1  0
 15 34  1  0
 36 35  1  1
 36 37  1  0
 36 39  1  0
 37 38  1  0
 38 41  1  0
 39 40  1  0
 40 41  1  0
 41 17  1  6
 42 43  1  0
M  END
$$$$
