NS-C-142.sdf
     RDKit          3D

 26 29  0  0  0  0  0  0  0  0999 V2000
  -20.1588   -5.3378   23.2180 N   0  0  0  0  0  0  0  0  0  0  0  0
  -21.3975   -5.7544   23.8677 C   0  0  0  0  0  0  0  0  0  0  0  0
  -21.6826   -4.6290   24.8557 C   0  0  0  0  0  0  0  0  0  0  0  0
  -21.2007   -3.3871   24.1147 C   0  0  2  0  0  0  0  0  0  0  0  0
  -19.9377   -3.8950   23.3810 C   0  0  0  0  0  0  0  0  0  0  0  0
  -18.2704   -6.7413   22.6285 C   0  0  0  0  0  0  0  0  0  0  0  0
  -17.5720   -7.5409   21.7151 C   0  0  0  0  0  0  0  0  0  0  0  0
  -18.0811   -7.7303   20.4403 C   0  0  0  0  0  0  0  0  0  0  0  0
  -19.2726   -7.1396   20.0631 C   0  0  0  0  0  0  0  0  0  0  0  0
  -19.9581   -6.3458   20.9823 C   0  0  0  0  0  0  0  0  0  0  0  0
  -19.4837   -6.1100   22.2929 C   0  0  0  0  0  0  0  0  0  0  0  0
  -17.4139   -8.4955   19.5673 F   0  0  0  0  0  0  0  0  0  0  0  0
  -21.1066   -5.7906   20.5604 F   0  0  0  0  0  0  0  0  0  0  0  0
  -21.6369   -1.0730   24.8195 C   0  0  0  0  0  0  0  0  0  0  0  0
  -22.3383   -0.8340   23.8443 O   0  0  0  0  0  0  0  0  0  0  0  0
  -20.9823   -2.2669   25.0176 N   0  0  0  0  0  0  0  0  0  0  0  0
  -20.3617   -2.3641   25.7756 H   0  0  0  0  0  0  0  0  0  0  0  0
  -21.4807   -0.0796   25.9242 C   0  0  0  0  0  0  0  0  0  0  0  0
  -20.5803    0.9220   25.8495 C   0  0  0  0  0  0  0  0  0  0  0  0
  -20.5037    1.8327   26.8987 N   0  0  0  0  0  0  0  0  0  0  0  0
  -21.3040    1.7839   28.0287 C   0  0  0  0  0  0  0  0  0  0  0  0
  -22.2741    0.7489   28.0991 C   0  0  0  0  0  0  0  0  0  0  0  0
  -22.3655   -0.1405   27.0901 C   0  0  0  0  0  0  0  0  0  0  0  0
  -19.6948    2.9177   27.0852 C   0  0  0  0  0  0  0  0  0  0  0  0
  -19.9607    3.4841   28.2410 N   0  0  0  0  0  0  0  0  0  0  0  0
  -20.9779    2.7685   28.8372 N   0  0  0  0  0  0  0  0  0  0  0  0
 14 18  1  0
 14 15  2  0
 18 19  2  0
 19 20  1  0
 20 21  1  0
 21 22  1  0
 22 23  2  0
 23 18  1  0
 20 24  1  0
 24 25  2  0
 25 26  1  0
 26 21  2  0
  6  7  2  0
  7  8  1  0
  8  9  2  0
  9 10  1  0
 10 11  2  0
 11  6  1  0
  8 12  1  0
 11  1  1  0
  1  2  1  0
  2  3  1  0
  3  4  1  0
  4  5  1  0
  5  1  1  0
  4 16  1  1
 14 16  1  0
 10 13  1  0
 16 17  1  0
M  END
>  <minimizedAffinity>  (1) 
-7.27118

>  <CNNscore>  (1) 
0.6702556610

>  <CNNaffinity>  (1) 
5.4900422096

>  <CNN_VS>  (1) 
3.6797318459

>  <CNNaffinity_variance>  (1) 
0.1905090362

$$$$
