NS-C-142.sdf
     RDKit          3D

 26 29  0  0  0  0  0  0  0  0999 V2000
  -21.3031   -3.9027   21.5247 N   0  0  0  0  0  0  0  0  0  0  0  0
  -22.6217   -3.9580   20.9013 C   0  0  0  0  0  0  0  0  0  0  0  0
  -23.2679   -2.6383   21.3070 C   0  0  0  0  0  0  0  0  0  0  0  0
  -22.0964   -1.6630   21.3025 C   0  0  2  0  0  0  0  0  0  0  0  0
  -20.9353   -2.5203   21.8578 C   0  0  0  0  0  0  0  0  0  0  0  0
  -20.2966   -5.7700   20.3487 C   0  0  0  0  0  0  0  0  0  0  0  0
  -19.3749   -6.8218   20.2740 C   0  0  0  0  0  0  0  0  0  0  0  0
  -18.5223   -7.0632   21.3393 C   0  0  0  0  0  0  0  0  0  0  0  0
  -18.5717   -6.2743   22.4734 C   0  0  0  0  0  0  0  0  0  0  0  0
  -19.4942   -5.2302   22.5348 C   0  0  0  0  0  0  0  0  0  0  0  0
  -20.3940   -4.9418   21.4834 C   0  0  0  0  0  0  0  0  0  0  0  0
  -17.6404   -8.0682   21.2676 F   0  0  0  0  0  0  0  0  0  0  0  0
  -19.5038   -4.5003   23.6627 F   0  0  0  0  0  0  0  0  0  0  0  0
  -22.0088    0.7769   21.5873 C   0  0  0  0  0  0  0  0  0  0  0  0
  -21.3200    0.9392   20.5876 O   0  0  0  0  0  0  0  0  0  0  0  0
  -22.3915   -0.4568   22.0613 N   0  0  0  0  0  0  0  0  0  0  0  0
  -22.8684   -0.5240   22.9199 H   0  0  0  0  0  0  0  0  0  0  0  0
  -22.5462    1.9399   22.3556 C   0  0  0  0  0  0  0  0  0  0  0  0
  -23.7885    1.9245   22.8807 C   0  0  0  0  0  0  0  0  0  0  0  0
  -24.2201    3.0272   23.6114 N   0  0  0  0  0  0  0  0  0  0  0  0
  -23.4482    4.1540   23.8446 C   0  0  0  0  0  0  0  0  0  0  0  0
  -22.1287    4.1632   23.3193 C   0  0  0  0  0  0  0  0  0  0  0  0
  -21.6919    3.1020   22.6119 C   0  0  0  0  0  0  0  0  0  0  0  0
  -25.4089    3.2778   24.2361 C   0  0  0  0  0  0  0  0  0  0  0  0
  -25.3816    4.4666   24.7957 N   0  0  0  0  0  0  0  0  0  0  0  0
  -24.1426    5.0204   24.5493 N   0  0  0  0  0  0  0  0  0  0  0  0
 14 18  1  0
 14 15  2  0
 18 19  2  0
 19 20  1  0
 20 21  1  0
 21 22  1  0
 22 23  2  0
 23 18  1  0
 20 24  1  0
 24 25  2  0
 25 26  1  0
 26 21  2  0
  6  7  2  0
  7  8  1  0
  8  9  2  0
  9 10  1  0
 10 11  2  0
 11  6  1  0
  8 12  1  0
 11  1  1  0
  1  2  1  0
  2  3  1  0
  3  4  1  0
  4  5  1  0
  5  1  1  0
  4 16  1  1
 14 16  1  0
 10 13  1  0
 16 17  1  0
M  END
>  <minimizedAffinity>  (1) 
-6.97529

>  <CNNscore>  (1) 
0.5872155428

>  <CNNaffinity>  (1) 
5.3801188469

>  <CNN_VS>  (1) 
3.1592893600

>  <CNNaffinity_variance>  (1) 
0.0500403829

$$$$
