NS-C-142.sdf
     RDKit          3D

 26 29  0  0  0  0  0  0  0  0999 V2000
  -20.1772   -5.2956   22.1569 N   0  0  0  0  0  0  0  0  0  0  0  0
  -20.4464   -5.5832   23.5622 C   0  0  0  0  0  0  0  0  0  0  0  0
  -20.9219   -4.2461   24.1191 C   0  0  0  0  0  0  0  0  0  0  0  0
  -21.7038   -3.6450   22.9568 C   0  0  2  0  0  0  0  0  0  0  0  0
  -20.8723   -4.0757   21.7260 C   0  0  0  0  0  0  0  0  0  0  0  0
  -20.2962   -6.5199   20.0664 C   0  0  0  0  0  0  0  0  0  0  0  0
  -19.7712   -7.4391   19.1495 C   0  0  0  0  0  0  0  0  0  0  0  0
  -18.5706   -8.0735   19.4258 C   0  0  0  0  0  0  0  0  0  0  0  0
  -17.8858   -7.8056   20.5963 C   0  0  0  0  0  0  0  0  0  0  0  0
  -18.4197   -6.8881   21.5008 C   0  0  0  0  0  0  0  0  0  0  0  0
  -19.6435   -6.2169   21.2769 C   0  0  0  0  0  0  0  0  0  0  0  0
  -18.0681   -8.9518   18.5489 F   0  0  0  0  0  0  0  0  0  0  0  0
  -17.7164   -6.6711   22.6248 F   0  0  0  0  0  0  0  0  0  0  0  0
  -20.9174   -1.3340   22.6694 C   0  0  0  0  0  0  0  0  0  0  0  0
  -19.8265   -1.6846   22.2368 O   0  0  0  0  0  0  0  0  0  0  0  0
  -21.8840   -2.2090   23.1088 N   0  0  0  0  0  0  0  0  0  0  0  0
  -22.7034   -1.8611   23.5292 H   0  0  0  0  0  0  0  0  0  0  0  0
  -21.3122    0.1065   22.7007 C   0  0  0  0  0  0  0  0  0  0  0  0
  -20.4319    1.0716   23.0367 C   0  0  0  0  0  0  0  0  0  0  0  0
  -20.8531    2.3976   23.0182 N   0  0  0  0  0  0  0  0  0  0  0  0
  -22.1316    2.8010   22.6682 C   0  0  0  0  0  0  0  0  0  0  0  0
  -23.0541    1.7914   22.2849 C   0  0  0  0  0  0  0  0  0  0  0  0
  -22.6627    0.5014   22.2930 C   0  0  0  0  0  0  0  0  0  0  0  0
  -20.1868    3.5529   23.3144 C   0  0  0  0  0  0  0  0  0  0  0  0
  -20.9896    4.5841   23.1749 N   0  0  0  0  0  0  0  0  0  0  0  0
  -22.2184    4.1096   22.7659 N   0  0  0  0  0  0  0  0  0  0  0  0
 14 18  1  0
 14 15  2  0
 18 19  2  0
 19 20  1  0
 20 21  1  0
 21 22  1  0
 22 23  2  0
 23 18  1  0
 20 24  1  0
 24 25  2  0
 25 26  1  0
 26 21  2  0
  6  7  2  0
  7  8  1  0
  8  9  2  0
  9 10  1  0
 10 11  2  0
 11  6  1  0
  8 12  1  0
 11  1  1  0
  1  2  1  0
  2  3  1  0
  3  4  1  0
  4  5  1  0
  5  1  1  0
  4 16  1  1
 14 16  1  0
 10 13  1  0
 16 17  1  0
M  END
>  <minimizedAffinity>  (1) 
-6.90470

>  <CNNscore>  (1) 
0.5098654032

>  <CNNaffinity>  (1) 
5.7615237236

>  <CNN_VS>  (1) 
2.9376015663

>  <CNNaffinity_variance>  (1) 
0.0087392190

$$$$
