NS-C-142.sdf
     RDKit          3D

 26 29  0  0  0  0  0  0  0  0999 V2000
  -21.7484   -0.2608   22.4800 N   0  0  0  0  0  0  0  0  0  0  0  0
  -22.9261   -1.0976   22.6876 C   0  0  0  0  0  0  0  0  0  0  0  0
  -22.4465   -2.4948   22.3109 C   0  0  0  0  0  0  0  0  0  0  0  0
  -20.9995   -2.5053   22.7901 C   0  0  2  0  0  0  0  0  0  0  0  0
  -20.5225   -1.0696   22.4697 C   0  0  0  0  0  0  0  0  0  0  0  0
  -22.9622    1.8250   22.7228 C   0  0  0  0  0  0  0  0  0  0  0  0
  -22.9947    3.2156   22.8859 C   0  0  0  0  0  0  0  0  0  0  0  0
  -21.8067    3.9249   22.9625 C   0  0  0  0  0  0  0  0  0  0  0  0
  -20.5907    3.2724   22.8818 C   0  0  0  0  0  0  0  0  0  0  0  0
  -20.5726    1.8874   22.7194 C   0  0  0  0  0  0  0  0  0  0  0  0
  -21.7513    1.1126   22.6268 C   0  0  0  0  0  0  0  0  0  0  0  0
  -21.8377    5.2543   23.1193 F   0  0  0  0  0  0  0  0  0  0  0  0
  -19.3640    1.3060   22.6397 F   0  0  0  0  0  0  0  0  0  0  0  0
  -20.1676   -4.8176   22.7335 C   0  0  0  0  0  0  0  0  0  0  0  0
  -20.6465   -5.0910   23.8271 O   0  0  0  0  0  0  0  0  0  0  0  0
  -20.2276   -3.5673   22.1623 N   0  0  0  0  0  0  0  0  0  0  0  0
  -19.7448   -3.3898   21.3229 H   0  0  0  0  0  0  0  0  0  0  0  0
  -19.5140   -5.8633   21.8902 C   0  0  0  0  0  0  0  0  0  0  0  0
  -19.9844   -6.1769   20.6656 C   0  0  0  0  0  0  0  0  0  0  0  0
  -19.3134   -7.1389   19.9170 N   0  0  0  0  0  0  0  0  0  0  0  0
  -18.1756   -7.8025   20.3471 C   0  0  0  0  0  0  0  0  0  0  0  0
  -17.6588   -7.4549   21.6236 C   0  0  0  0  0  0  0  0  0  0  0  0
  -18.2934   -6.5222   22.3615 C   0  0  0  0  0  0  0  0  0  0  0  0
  -19.5695   -7.6456   18.6744 C   0  0  0  0  0  0  0  0  0  0  0  0
  -18.6748   -8.5580   18.3671 N   0  0  0  0  0  0  0  0  0  0  0  0
  -17.7934   -8.6570   19.4235 N   0  0  0  0  0  0  0  0  0  0  0  0
 14 18  1  0
 14 15  2  0
 18 19  2  0
 19 20  1  0
 20 21  1  0
 21 22  1  0
 22 23  2  0
 23 18  1  0
 20 24  1  0
 24 25  2  0
 25 26  1  0
 26 21  2  0
  6  7  2  0
  7  8  1  0
  8  9  2  0
  9 10  1  0
 10 11  2  0
 11  6  1  0
  8 12  1  0
 11  1  1  0
  1  2  1  0
  2  3  1  0
  3  4  1  0
  4  5  1  0
  5  1  1  0
  4 16  1  6
 14 16  1  0
 10 13  1  0
 16 17  1  0
M  END
>  <minimizedAffinity>  (1) 
-7.40071

>  <CNNscore>  (1) 
0.6660601497

>  <CNNaffinity>  (1) 
5.7050747871

>  <CNN_VS>  (1) 
3.7999229431

>  <CNNaffinity_variance>  (1) 
0.0381129719

$$$$
