7uj4
     RDKit          3D

 44 48  0  0  0  0  0  0  0  0999 V2000
  -25.1937    1.0737   23.3763 C   0  0  0  0  0  0  0  0  0  0  0  0
  -24.1923    1.9448   25.4417 N   0  0  0  0  0  0  0  0  0  0  0  0
  -23.5220    0.1029   26.6052 O   0  0  0  0  0  0  0  0  0  0  0  0
  -20.3716  -11.8663   24.0654 S   0  0  1  0  0  6  0  0  0  0  0  0
  -25.2797    1.1881   24.8682 C   0  0  1  0  0  0  0  0  0  0  0  0
  -18.1356    3.4021   23.4809 N   0  0  0  0  0  0  0  0  0  0  0  0
  -20.5402    1.4424   25.3620 O   0  0  0  0  0  0  0  0  0  0  0  0
  -26.5827    1.9002   25.2590 C   0  0  0  0  0  0  0  0  0  0  0  0
  -18.6471    1.4746   22.3293 N   0  0  0  0  0  0  0  0  0  0  0  0
  -19.0396  -12.5616   24.0284 O   0  0  0  0  0  0  0  0  0  0  0  0
  -24.0183    3.3457   25.0826 C   0  0  0  0  0  0  0  0  0  0  0  0
  -20.2025   -0.1764   23.1697 N   0  0  0  0  0  0  0  0  0  0  0  0
  -20.8449  -11.8745   25.4908 O   0  0  0  0  0  0  0  0  0  0  0  0
  -22.6236    3.6558   24.6196 C   0  0  0  0  0  0  0  0  0  0  0  0
  -19.7776   -5.0724   22.9773 N   0  0  0  0  0  0  0  0  0  0  0  0
  -23.3163    1.3019   26.3525 C   0  0  0  0  0  0  0  0  0  0  0  0
  -20.1688  -10.2332   23.5752 N   0  0  0  0  0  0  0  0  0  0  0  0
  -22.2318    2.0608   26.9427 C   0  0  0  0  0  0  0  0  0  0  0  0
  -22.4904    2.7918   28.1072 C   0  0  0  0  0  0  0  0  0  0  0  0
  -21.5307    3.5148   28.7648 C   0  0  0  0  0  0  0  0  0  0  0  0
  -20.2276    3.5503   28.2865 C   0  0  0  0  0  0  0  0  0  0  0  0
  -19.9603    2.8409   27.1496 C   0  0  0  0  0  0  0  0  0  0  0  0
  -20.9451    2.1008   26.4756 C   0  0  0  0  0  0  0  0  0  0  0  0
  -19.6623    1.8902   24.4000 C   0  0  0  0  0  0  0  0  0  0  0  0
  -18.9589    3.0789   24.4828 C   0  0  0  0  0  0  0  0  0  0  0  0
  -17.9699    2.6169   22.4055 C   0  0  0  0  0  0  0  0  0  0  0  0
  -19.5094    1.0501   23.2901 C   0  0  0  0  0  0  0  0  0  0  0  0
  -20.5493   -1.0250   22.0467 C   0  0  0  0  0  0  0  0  0  0  0  0
  -20.8644   -1.1400   24.0148 C   0  0  0  0  0  0  0  0  0  0  0  0
  -20.4333   -2.1933   23.0197 C   0  0  2  0  0  0  0  0  0  0  0  0
  -19.0535   -2.7370   23.2243 C   0  0  0  0  0  0  0  0  0  0  0  0
  -19.1583   -4.1004   23.8797 C   0  0  0  0  0  0  0  0  0  0  0  0
  -21.3630   -3.3323   22.7747 C   0  0  0  0  0  0  0  0  0  0  0  0
  -20.5333   -4.4013   22.0072 C   0  0  0  0  0  0  0  0  0  0  0  0
  -18.8174   -6.0364   22.6521 C   0  0  0  0  0  0  0  0  0  0  0  0
  -19.1852   -7.4890   22.7765 C   0  0  1  0  0  0  0  0  0  0  0  0
  -20.5642   -7.7144   22.2465 C   0  0  0  0  0  0  0  0  0  0  0  0
  -20.7976   -8.9997   21.5408 C   0  0  0  0  0  0  0  0  0  0  0  0
  -18.1035   -8.3713   22.3574 C   0  0  0  0  0  0  0  0  0  0  0  0
  -18.5203   -9.7373   21.8766 C   0  0  0  0  0  0  0  0  0  0  0  0
  -19.9447  -10.0780   22.1744 C   0  0  1  0  0  0  0  0  0  0  0  0
  -21.4727  -12.7559   23.0041 C   0  0  0  0  0  0  0  0  0  0  0  0
  -21.6102  -14.1635   23.4895 C   0  0  0  0  0  0  0  0  0  0  0  0
  -21.7881    4.2237   29.8990 F   0  0  0  0  0  0  0  0  0  0  0  0
  5  1  1  6
  2 11  1  0
  2 16  1  0
  4 10  2  0
  4 13  2  0
  4 42  1  6
  2  5  1  0
  5  8  1  0
  6 26  2  0
  7 24  1  0
  9 27  2  0
 11 14  1  0
 12 28  1  0
 12 29  1  0
 15 35  1  0
  3 16  2  0
 16 18  1  0
  4 17  1  0
 18 19  2  0
 18 23  1  0
 19 20  1  0
 20 21  2  0
 20 44  1  0
 21 22  1  0
 22 23  2  0
  7 23  1  0
 24 25  2  0
 24 27  1  0
  6 25  1  0
  9 26  1  0
 12 27  1  0
 30 28  1  6
 29 30  1  0
 30 31  1  0
 30 33  1  0
 31 32  1  0
 15 32  1  0
 33 34  1  0
 15 34  1  0
 36 35  1  6
 36 37  1  0
 36 39  1  0
 37 38  1  0
 38 41  1  0
 39 40  1  0
 40 41  1  0
 41 17  1  1
 42 43  1  0
M  END
$$$$
