7uj4
     RDKit          3D

 45 49  0  0  0  0  0  0  0  0999 V2000
  -24.0677   -1.6564   25.0460 N   0  0  0  0  0  0  0  0  0  0  0  0
  -20.6039   -4.8251   23.7107 N   0  0  0  0  0  0  0  0  0  0  0  0
  -23.1583   -2.0352   23.9776 C   0  0  0  0  0  0  0  0  0  0  0  0
  -23.8234   -2.7299   26.0023 C   0  0  0  0  0  0  0  0  0  0  0  0
  -22.7210   -3.2024   24.9648 C   0  0  0  0  0  0  0  0  0  0  0  0
  -21.2655   -3.1198   25.4229 C   0  0  0  0  0  0  0  0  0  0  0  0
  -20.3226   -3.4641   24.2929 C   0  0  0  0  0  0  0  0  0  0  0  0
  -22.9746   -4.6023   24.4124 C   0  0  0  0  0  0  0  0  0  0  0  0
  -22.0342   -4.9533   23.2862 C   0  0  0  0  0  0  0  0  0  0  0  0
  -26.1422    1.8398   25.3455 N   0  0  0  0  0  0  0  0  0  0  0  0
  -25.8879   -0.3527   24.4685 N   0  0  0  0  0  0  0  0  0  0  0  0
  -24.3326    0.5194   25.9985 C   0  0  0  0  0  0  0  0  0  0  0  0
  -25.0438    1.6913   26.0582 C   0  0  0  0  0  0  0  0  0  0  0  0
  -26.5563    0.7960   24.6184 C   0  0  0  0  0  0  0  0  0  0  0  0
  -24.7856   -0.5135   25.1877 C   0  0  0  0  0  0  0  0  0  0  0  0
  -23.2088    0.4014   26.7452 O   0  0  0  0  0  0  0  0  0  0  0  0
  -21.5846    2.1468   26.5447 C   0  0  0  0  0  0  0  0  0  0  0  0
  -20.9642    3.2630   27.1081 C   0  0  0  0  0  0  0  0  0  0  0  0
  -21.4003    3.7086   28.3313 C   0  0  0  0  0  0  0  0  0  0  0  0
  -22.4091    3.1136   29.0516 C   0  0  0  0  0  0  0  0  0  0  0  0
  -23.0071    1.9936   28.5067 C   0  0  0  0  0  0  0  0  0  0  0  0
  -22.5665    1.4988   27.2984 C   0  0  0  0  0  0  0  0  0  0  0  0
  -20.8125    4.7926   28.8825 F   0  0  0  0  0  0  0  0  0  0  0  0
  -21.2958    2.3631   24.0501 N   0  0  0  0  0  0  0  0  0  0  0  0
  -20.8250    0.4622   25.0937 O   0  0  0  0  0  0  0  0  0  0  0  0
  -21.2201    1.6173   25.1672 C   0  0  0  0  0  0  0  0  0  0  0  0
  -23.4232    3.5167   23.7029 C   0  0  0  0  0  0  0  0  0  0  0  0
  -21.9480    3.6776   23.9958 C   0  0  0  0  0  0  0  0  0  0  0  0
  -21.2380    4.5950   23.0336 C   0  0  0  0  0  0  0  0  0  0  0  0
  -20.8010    1.8599   22.7602 C   0  0  0  0  0  0  0  0  0  0  0  0
  -21.7845    0.9820   22.0448 C   0  0  0  0  0  0  0  0  0  0  0  0
  -19.7366   -5.0731   22.5150 C   0  0  0  0  0  0  0  0  0  0  0  0
  -18.9404   -6.3764   22.5900 C   0  0  1  0  0  0  0  0  0  0  0  0
  -19.6352   -7.4502   23.4399 C   0  0  0  0  0  0  0  0  0  0  0  0
  -18.8578   -8.7550   23.4864 C   0  0  0  0  0  0  0  0  0  0  0  0
  -18.6129   -6.9062   21.1957 C   0  0  0  0  0  0  0  0  0  0  0  0
  -17.7884   -8.1826   21.2778 C   0  0  0  0  0  0  0  0  0  0  0  0
  -18.5152   -9.2392   22.0941 C   0  0  1  0  0  0  0  0  0  0  0  0
  -17.6749  -10.4474   22.1618 N   0  0  0  0  0  0  0  0  0  0  0  0
  -16.9031  -10.2892   21.5140 H   0  0  0  0  0  0  0  0  0  0  0  0
  -18.2374  -11.9425   21.8327 S   0  0  0  0  0  0  0  0  0  0  0  0
  -19.1897  -11.7509   20.7807 O   0  0  0  0  0  0  0  0  0  0  0  0
  -17.0916  -12.7751   21.5996 O   0  0  0  0  0  0  0  0  0  0  0  0
  -19.0839  -12.4810   23.3089 C   0  0  0  0  0  0  0  0  0  0  0  0
  -20.1502  -13.5228   23.0375 C   0  0  0  0  0  0  0  0  0  0  0  0
 27 28  1  0
 24 30  1  0
 24 26  1  0
 41 42  2  0
 41 43  2  0
 41 44  1  0
 24 28  1  0
 28 29  1  0
 10 14  2  0
 16 12  1  0
 11 15  2  0
 30 31  1  0
  1  3  1  0
  1  4  1  0
  2 32  1  0
 25 26  2  0
 26 17  1  0
 41 39  1  0
 17 18  2  0
 17 22  1  0
 18 19  1  0
 19 20  2  0
 19 23  1  0
 20 21  1  0
 21 22  2  0
 16 22  1  0
 12 13  2  0
 12 15  1  0
 10 13  1  0
 11 14  1  0
  1 15  1  0
  3  5  1  0
  4  5  1  0
  5  6  1  0
  5  8  1  0
  6  7  1  0
  2  7  1  0
  8  9  1  0
  2  9  1  0
 33 32  1  6
 33 34  1  0
 33 36  1  0
 34 35  1  0
 35 38  1  0
 36 37  1  0
 37 38  1  0
 38 39  1  1
 44 45  1  0
 39 40  1  0
M  END
>  <minimizedAffinity>  (1) 
-7.93407

>  <CNNscore>  (1) 
0.7100887895

>  <CNNaffinity>  (1) 
7.5756554604

>  <CNN_VS>  (1) 
5.3793878555

>  <CNNaffinity_variance>  (1) 
0.1067264006

$$$$
