ziftomenib.sdf
     RDKit          3D

 49 54  0  0  1  0  0  0  0  0999 V2000
  -16.6918  -12.3740   21.5874 N   0  0  0  0  0  0  0  0  0  0  0  0
  -17.3840  -11.4938   21.9123 C   0  0  0  0  0  0  0  0  0  0  0  0
  -18.2190  -10.4144   22.3186 C   0  0  0  0  0  0  0  0  0  0  0  0
  -19.2699  -10.4306   23.1819 N   0  0  0  0  0  0  0  0  0  0  0  0
  -19.6843  -11.6419   23.8425 C   0  0  0  0  0  0  0  0  0  0  0  0
  -21.0639  -12.0880   23.4340 C   0  0  1  0  0  0  0  0  0  0  0  0
  -21.0109  -12.6065   22.0860 N   0  0  0  0  0  0  0  0  0  0  0  0
  -20.5507  -13.9565   22.0223 C   0  0  0  0  0  0  0  0  0  0  0  0
  -21.5618  -14.8980   21.4082 C   0  0  0  0  0  0  0  0  0  0  0  0
  -21.9293  -14.4418   20.1110 N   0  0  0  0  0  0  0  0  0  0  0  0
  -20.8282  -14.8406   18.8773 S   0  0  1  0  0  6  0  0  0  0  0  0
  -19.4350  -15.1483   19.4079 O   0  0  0  0  0  0  0  0  0  0  0  0
  -21.4316  -16.2618   17.9835 C   0  0  0  0  0  0  0  0  0  0  0  0
  -20.6597  -13.7238   17.8778 O   0  0  0  0  0  0  0  0  0  0  0  0
  -22.4241  -13.1102   20.1030 C   0  0  0  0  0  0  0  0  0  0  0  0
  -22.1355  -12.2710   21.2954 C   0  0  0  0  0  0  0  0  0  0  0  0
  -21.5837  -13.0674   24.4253 C   0  0  0  0  0  0  0  0  0  0  0  0
  -18.0526   -9.1065   21.8497 C   0  0  0  0  0  0  0  0  0  0  0  0
  -19.0324   -8.3719   22.4650 C   0  0  0  0  0  0  0  0  0  0  0  0
  -19.7664   -9.1897   23.2734 C   0  0  0  0  0  0  0  0  0  0  0  0
  -20.8049   -8.6370   23.9953 C   0  0  0  0  0  0  0  0  0  0  0  0
  -21.0658   -7.3006   23.8788 C   0  0  0  0  0  0  0  0  0  0  0  0
  -20.3120   -6.4438   23.0423 C   0  0  0  0  0  0  0  0  0  0  0  0
  -20.7192   -5.0223   22.9682 C   0  0  0  0  0  0  0  0  0  0  0  0
  -20.0123   -4.1739   22.1102 N   0  0  0  0  0  0  0  0  0  0  0  0
  -18.6785   -3.7968   22.3389 C   0  0  0  0  0  0  0  0  0  0  0  0
  -18.4972   -2.6991   23.3332 C   0  0  0  0  0  0  0  0  0  0  0  0
  -19.3540   -1.5098   23.0229 C   0  0  2  0  0  0  0  0  0  0  0  0
  -19.4409   -0.6352   24.1813 N   0  0  0  0  0  0  0  0  0  0  0  0
  -19.0791    0.7232   24.2121 C   0  0  0  0  0  0  0  0  0  0  0  0
  -19.3149    1.5138   25.3688 C   0  0  0  0  0  0  0  0  0  0  0  0
  -19.8765    1.1100   26.5230 C   0  0  0  0  0  0  0  0  0  0  0  0
  -20.0263    2.0090   27.5235 C   0  0  0  0  0  0  0  0  0  0  0  0
  -20.6063    1.8519   28.8798 C   0  0  0  0  0  0  0  0  0  0  0  0
  -21.6548    2.9347   29.0607 C   0  0  1  0  0  0  0  0  0  0  0  0
  -21.0795    4.2003   28.9427 F   0  0  0  0  0  0  0  0  0  0  0  0
  -22.6426    2.8467   28.1143 F   0  0  0  0  0  0  0  0  0  0  0  0
  -22.2192    2.8899   30.3076 F   0  0  0  0  0  0  0  0  0  0  0  0
  -19.3659    3.4816   26.8524 S   0  0  0  0  0  0  0  0  0  0  0  0
  -18.9195    2.8011   25.2473 C   0  0  0  0  0  0  0  0  0  0  0  0
  -18.3426    3.3572   24.1525 N   0  0  0  0  0  0  0  0  0  0  0  0
  -18.1317    2.5655   23.0607 C   0  0  0  0  0  0  0  0  0  0  0  0
  -17.5487    3.0556   21.8873 N   0  0  0  0  0  0  0  0  0  0  0  0
  -17.3270    2.1138   20.7857 C   0  0  0  0  0  0  0  0  0  0  0  0
  -18.5132    1.2901   23.1534 N   0  0  0  0  0  0  0  0  0  0  0  0
  -20.7322   -1.9031   22.6333 C   0  0  0  0  0  0  0  0  0  0  0  0
  -20.8117   -3.0409   21.6410 C   0  0  0  0  0  0  0  0  0  0  0  0
  -19.2852   -6.9952   22.3328 C   0  0  0  0  0  0  0  0  0  0  0  0
  -18.4010   -6.1699   21.4701 C   0  0  0  0  0  0  0  0  0  0  0  0
  1  2  3  0
  2  3  1  0
  3  4  1  0
  4  5  1  0
  5  6  1  0
  6  7  1  0
  7  8  1  0
  8  9  1  0
  9 10  1  0
 10 11  1  0
 11 12  2  0
 11 13  1  6
 11 14  2  0
 10 15  1  0
 15 16  1  0
  7 16  1  0
  6 17  1  1
  3 18  2  0
 18 19  1  0
 19 20  2  0
  4 20  1  0
 20 21  1  0
 21 22  2  0
 22 23  1  0
 23 24  1  0
 24 25  1  0
 25 26  1  0
 26 27  1  0
 27 28  1  0
 28 29  1  1
 29 30  1  0
 30 31  2  0
 31 32  1  0
 32 33  2  0
 33 34  1  0
 34 35  1  0
 35 36  1  6
 35 37  1  0
 35 38  1  0
 33 39  1  0
 31 40  1  0
 39 40  1  0
 40 41  2  0
 41 42  1  0
 42 43  1  0
 43 44  1  0
 42 45  2  0
 30 45  1  0
 28 46  1  0
 46 47  1  0
 25 47  1  0
 23 48  2  0
 19 48  1  0
 48 49  1  0
M  END
$$$$
