ziftomenib.sdf
     RDKit          3D

 49 54  0  0  1  0  0  0  0  0999 V2000
  -17.3979  -13.5325   21.7779 N   0  0  0  0  0  0  0  0  0  0  0  0
  -17.7865  -12.4699   22.0598 C   0  0  0  0  0  0  0  0  0  0  0  0
  -18.2472  -11.1683   22.4073 C   0  0  0  0  0  0  0  0  0  0  0  0
  -19.2926  -10.8211   23.2051 N   0  0  0  0  0  0  0  0  0  0  0  0
  -20.1137  -11.8155   23.8474 C   0  0  0  0  0  0  0  0  0  0  0  0
  -21.5642  -11.7202   23.4521 C   0  0  1  0  0  0  0  0  0  0  0  0
  -21.7210  -12.2342   22.1105 N   0  0  0  0  0  0  0  0  0  0  0  0
  -21.9126  -13.6485   22.0708 C   0  0  0  0  0  0  0  0  0  0  0  0
  -23.2253  -14.0503   21.4373 C   0  0  0  0  0  0  0  0  0  0  0  0
  -23.3228  -13.5036   20.1268 N   0  0  0  0  0  0  0  0  0  0  0  0
  -22.4916  -14.3771   18.9270 S   0  0  1  0  0  6  0  0  0  0  0  0
  -21.2301  -15.0472   19.4535 O   0  0  0  0  0  0  0  0  0  0  0  0
  -23.5702  -15.6280   18.2526 C   0  0  0  0  0  0  0  0  0  0  0  0
  -22.0540  -13.5004   17.7806 O   0  0  0  0  0  0  0  0  0  0  0  0
  -23.1690  -12.0918   20.0940 C   0  0  0  0  0  0  0  0  0  0  0  0
  -22.5599  -11.4469   21.2866 C   0  0  0  0  0  0  0  0  0  0  0  0
  -22.4012  -12.4262   24.4585 C   0  0  0  0  0  0  0  0  0  0  0  0
  -17.6397   -9.9972   21.9407 C   0  0  0  0  0  0  0  0  0  0  0  0
  -18.3606   -8.9694   22.4903 C   0  0  0  0  0  0  0  0  0  0  0  0
  -19.3639   -9.4844   23.2579 C   0  0  0  0  0  0  0  0  0  0  0  0
  -20.2052   -8.6067   23.9115 C   0  0  0  0  0  0  0  0  0  0  0  0
  -20.0114   -7.2614   23.7704 C   0  0  0  0  0  0  0  0  0  0  0  0
  -18.9753   -6.7167   22.9756 C   0  0  0  0  0  0  0  0  0  0  0  0
  -18.8944   -5.2423   22.8673 C   0  0  0  0  0  0  0  0  0  0  0  0
  -20.0463   -4.5403   22.4990 N   0  0  0  0  0  0  0  0  0  0  0  0
  -20.0092   -3.3564   21.7437 C   0  0  0  0  0  0  0  0  0  0  0  0
  -19.6862   -2.1244   22.5213 C   0  0  0  0  0  0  0  0  0  0  0  0
  -20.5614   -1.9736   23.7280 C   0  0  2  0  0  0  0  0  0  0  0  0
  -19.9906   -1.0013   24.6462 N   0  0  0  0  0  0  0  0  0  0  0  0
  -19.6441    0.3234   24.3267 C   0  0  0  0  0  0  0  0  0  0  0  0
  -19.5747    1.3218   25.3352 C   0  0  0  0  0  0  0  0  0  0  0  0
  -19.8110    1.1601   26.6500 C   0  0  0  0  0  0  0  0  0  0  0  0
  -19.7004    2.2327   27.4680 C   0  0  0  0  0  0  0  0  0  0  0  0
  -19.9035    2.3512   28.9326 C   0  0  0  0  0  0  0  0  0  0  0  0
  -21.2185    3.0753   29.1583 C   0  0  1  0  0  0  0  0  0  0  0  0
  -21.1380    4.3926   28.7051 F   0  0  0  0  0  0  0  0  0  0  0  0
  -22.2498    2.4751   28.4837 F   0  0  0  0  0  0  0  0  0  0  0  0
  -21.5330    3.1511   30.4890 F   0  0  0  0  0  0  0  0  0  0  0  0
  -19.2506    3.5285   26.3846 S   0  0  0  0  0  0  0  0  0  0  0  0
  -19.2351    2.5473   24.8760 C   0  0  0  0  0  0  0  0  0  0  0  0
  -18.9697    2.8688   23.5849 N   0  0  0  0  0  0  0  0  0  0  0  0
  -19.0461    1.8823   22.6446 C   0  0  0  0  0  0  0  0  0  0  0  0
  -18.7948    2.1243   21.2898 N   0  0  0  0  0  0  0  0  0  0  0  0
  -18.9680    1.0122   20.3502 C   0  0  0  0  0  0  0  0  0  0  0  0
  -19.3799    0.6625   23.0707 N   0  0  0  0  0  0  0  0  0  0  0  0
  -20.7311   -3.2567   24.4565 C   0  0  0  0  0  0  0  0  0  0  0  0
  -21.0305   -4.4508   23.5789 C   0  0  0  0  0  0  0  0  0  0  0  0
  -18.1453   -7.5889   22.3337 C   0  0  0  0  0  0  0  0  0  0  0  0
  -16.9947   -7.1169   21.5209 C   0  0  0  0  0  0  0  0  0  0  0  0
  1  2  3  0
  2  3  1  0
  3  4  1  0
  4  5  1  0
  5  6  1  0
  6  7  1  0
  7  8  1  0
  8  9  1  0
  9 10  1  0
 10 11  1  0
 11 12  2  0
 11 13  1  6
 11 14  2  0
 10 15  1  0
 15 16  1  0
  7 16  1  0
  6 17  1  1
  3 18  2  0
 18 19  1  0
 19 20  2  0
  4 20  1  0
 20 21  1  0
 21 22  2  0
 22 23  1  0
 23 24  1  0
 24 25  1  0
 25 26  1  0
 26 27  1  0
 27 28  1  0
 28 29  1  1
 29 30  1  0
 30 31  2  0
 31 32  1  0
 32 33  2  0
 33 34  1  0
 34 35  1  0
 35 36  1  6
 35 37  1  0
 35 38  1  0
 33 39  1  0
 31 40  1  0
 39 40  1  0
 40 41  2  0
 41 42  1  0
 42 43  1  0
 43 44  1  0
 42 45  2  0
 30 45  1  0
 28 46  1  0
 46 47  1  0
 25 47  1  0
 23 48  2  0
 19 48  1  0
 48 49  1  0
M  END
$$$$
