NS-C-142.sdf
     RDKit          3D

 25 28  0  0  1  0  0  0  0  0999 V2000
  -20.1312   -1.7955   23.4974 C   0  0  0  0  0  0  0  0  0  0  0  0
  -19.7517   -3.2034   23.3773 C   0  0  0  0  0  0  0  0  0  0  0  0
  -21.2653   -1.5170   24.0132 O   0  0  0  0  0  0  0  0  0  0  0  0
  -18.7450   -3.5725   22.5000 C   0  0  0  0  0  0  0  0  0  0  0  0
  -18.3062   -4.8094   22.2962 N   0  0  0  0  0  0  0  0  0  0  0  0
  -18.9060   -5.8025   23.0203 C   0  0  0  0  0  0  0  0  0  0  0  0
  -19.9157   -5.5240   23.9154 C   0  0  0  0  0  0  0  0  0  0  0  0
  -20.3432   -4.2059   24.0952 C   0  0  0  0  0  0  0  0  0  0  0  0
  -17.3771   -5.4067   21.5292 C   0  0  0  0  0  0  0  0  0  0  0  0
  -17.3893   -6.7259   21.7595 N   0  0  0  0  0  0  0  0  0  0  0  0
  -18.3250   -6.9609   22.6708 N   0  0  0  0  0  0  0  0  0  0  0  0
  -20.2468    4.3374   26.2066 C   0  0  0  0  0  0  0  0  0  0  0  0
  -20.6297    5.0684   27.3303 C   0  0  0  0  0  0  0  0  0  0  0  0
  -20.9738    4.4294   28.5070 C   0  0  0  0  0  0  0  0  0  0  0  0
  -20.9223    3.0552   28.5195 C   0  0  0  0  0  0  0  0  0  0  0  0
  -20.5439    2.3188   27.4106 C   0  0  0  0  0  0  0  0  0  0  0  0
  -20.1998    2.9587   26.2340 C   0  0  0  0  0  0  0  0  0  0  0  0
  -21.3498    5.1390   29.6117 F   0  0  0  0  0  0  0  0  0  0  0  0
  -19.8085    2.1984   25.0870 N   0  0  0  0  0  0  0  0  0  0  0  0
  -19.0048    2.7825   24.0235 C   0  0  0  0  0  0  0  0  0  0  0  0
  -18.5477    1.5911   23.2269 C   0  0  0  0  0  0  0  0  0  0  0  0
  -19.7364    0.6293   23.3606 C   0  0  2  0  0  0  0  0  0  0  0  0
  -20.1138    0.8141   24.7913 C   0  0  0  0  0  0  0  0  0  0  0  0
  -19.3024   -0.7320   23.0699 N   0  0  0  0  0  0  0  0  0  0  0  0
  -20.4956    0.9504   27.4328 F   0  0  0  0  0  0  0  0  0  0  0  0
  1  2  1  0
  1  3  2  0
  2  4  2  0
  4  5  1  0
  5  6  1  0
  6  7  1  0
  7  8  2  0
  8  2  1  0
  5  9  1  0
  9 10  2  0
 10 11  1  0
 11  6  2  0
 12 13  2  0
 13 14  1  0
 14 15  2  0
 15 16  1  0
 16 17  2  0
 17 12  1  0
 14 18  1  0
 17 19  1  0
 19 20  1  0
 20 21  1  0
 21 22  1  0
 22 23  1  0
 23 19  1  0
 22 24  1  1
  1 24  1  0
 16 25  1  0
M  END
$$$$
