NS-C-142.sdf
     RDKit          3D

 25 28  0  0  1  0  0  0  0  0999 V2000
  -20.2020   -1.9749   23.7240 C   0  0  0  0  0  0  0  0  0  0  0  0
  -19.7085   -3.3060   23.3695 C   0  0  0  0  0  0  0  0  0  0  0  0
  -21.0003   -1.8702   24.7147 O   0  0  0  0  0  0  0  0  0  0  0  0
  -19.3714   -3.5877   22.0557 C   0  0  0  0  0  0  0  0  0  0  0  0
  -18.9138   -4.7492   21.6024 N   0  0  0  0  0  0  0  0  0  0  0  0
  -18.7644   -5.7523   22.5200 C   0  0  0  0  0  0  0  0  0  0  0  0
  -19.0760   -5.5582   23.8479 C   0  0  0  0  0  0  0  0  0  0  0  0
  -19.5545   -4.3175   24.2770 C   0  0  0  0  0  0  0  0  0  0  0  0
  -18.5286   -5.2570   20.4184 C   0  0  0  0  0  0  0  0  0  0  0  0
  -18.1505   -6.5314   20.5812 N   0  0  0  0  0  0  0  0  0  0  0  0
  -18.2969   -6.8275   21.8665 N   0  0  0  0  0  0  0  0  0  0  0  0
  -21.1868    3.9227   26.4419 C   0  0  0  0  0  0  0  0  0  0  0  0
  -21.3148    4.6280   27.6377 C   0  0  0  0  0  0  0  0  0  0  0  0
  -20.6290    4.2311   28.7706 C   0  0  0  0  0  0  0  0  0  0  0  0
  -19.8235    3.1213   28.6666 C   0  0  0  0  0  0  0  0  0  0  0  0
  -19.6884    2.4131   27.4854 C   0  0  0  0  0  0  0  0  0  0  0  0
  -20.3747    2.8108   26.3526 C   0  0  0  0  0  0  0  0  0  0  0  0
  -20.7496    4.9172   29.9453 F   0  0  0  0  0  0  0  0  0  0  0  0
  -20.2358    2.0794   25.1309 N   0  0  0  0  0  0  0  0  0  0  0  0
  -19.9613    2.7497   23.8685 C   0  0  0  0  0  0  0  0  0  0  0  0
  -19.5595    1.6284   22.9498 C   0  0  0  0  0  0  0  0  0  0  0  0
  -20.4176    0.4617   23.4583 C   0  0  2  0  0  0  0  0  0  0  0  0
  -20.3341    0.6479   24.9353 C   0  0  0  0  0  0  0  0  0  0  0  0
  -19.8367   -0.8025   23.0221 N   0  0  0  0  0  0  0  0  0  0  0  0
  -18.8837    1.3090   27.3916 F   0  0  0  0  0  0  0  0  0  0  0  0
  1  2  1  0
  1  3  2  0
  2  4  2  0
  4  5  1  0
  5  6  1  0
  6  7  1  0
  7  8  2  0
  8  2  1  0
  5  9  1  0
  9 10  2  0
 10 11  1  0
 11  6  2  0
 12 13  2  0
 13 14  1  0
 14 15  2  0
 15 16  1  0
 16 17  2  0
 17 12  1  0
 14 18  1  0
 17 19  1  0
 19 20  1  0
 20 21  1  0
 21 22  1  0
 22 23  1  0
 23 19  1  0
 22 24  1  1
  1 24  1  0
 16 25  1  0
M  END
$$$$
