NS-C-142.sdf
     RDKit          3D

 25 28  0  0  1  0  0  0  0  0999 V2000
  -20.1625   -1.7946   22.6251 C   0  0  0  0  0  0  0  0  0  0  0  0
  -19.9398   -3.2210   22.3869 C   0  0  0  0  0  0  0  0  0  0  0  0
  -21.3210   -1.3152   22.3845 O   0  0  0  0  0  0  0  0  0  0  0  0
  -18.6506   -3.7280   22.4003 C   0  0  0  0  0  0  0  0  0  0  0  0
  -18.3119   -4.9964   22.1999 N   0  0  0  0  0  0  0  0  0  0  0  0
  -19.3318   -5.8753   21.9593 C   0  0  0  0  0  0  0  0  0  0  0  0
  -20.6439   -5.4561   21.9283 C   0  0  0  0  0  0  0  0  0  0  0  0
  -20.9504   -4.1101   22.1452 C   0  0  0  0  0  0  0  0  0  0  0  0
  -17.1754   -5.7142   22.1630 C   0  0  0  0  0  0  0  0  0  0  0  0
  -17.4657   -6.9967   21.9091 N   0  0  0  0  0  0  0  0  0  0  0  0
  -18.7839   -7.0882   21.7858 N   0  0  0  0  0  0  0  0  0  0  0  0
  -20.0153    4.0777   26.3789 C   0  0  0  0  0  0  0  0  0  0  0  0
  -20.4639    4.7928   27.4884 C   0  0  0  0  0  0  0  0  0  0  0  0
  -21.0464    4.1435   28.5610 C   0  0  0  0  0  0  0  0  0  0  0  0
  -21.1623    2.7753   28.4856 C   0  0  0  0  0  0  0  0  0  0  0  0
  -20.7209    2.0545   27.3898 C   0  0  0  0  0  0  0  0  0  0  0  0
  -20.1383    2.7048   26.3173 C   0  0  0  0  0  0  0  0  0  0  0  0
  -21.4881    4.8377   29.6511 F   0  0  0  0  0  0  0  0  0  0  0  0
  -19.6816    1.9607   25.1840 N   0  0  0  0  0  0  0  0  0  0  0  0
  -18.7411    2.5277   24.2288 C   0  0  0  0  0  0  0  0  0  0  0  0
  -18.2806    1.3373   23.4327 C   0  0  0  0  0  0  0  0  0  0  0  0
  -19.5335    0.4508   23.4103 C   0  0  2  0  0  0  0  0  0  0  0  0
  -20.0402    0.6102   24.8035 C   0  0  0  0  0  0  0  0  0  0  0  0
  -19.1569   -0.9250   23.1080 N   0  0  0  0  0  0  0  0  0  0  0  0
  -20.8407    0.6919   27.3239 F   0  0  0  0  0  0  0  0  0  0  0  0
  1  2  1  0
  1  3  2  0
  2  4  2  0
  4  5  1  0
  5  6  1  0
  6  7  1  0
  7  8  2  0
  8  2  1  0
  5  9  1  0
  9 10  2  0
 10 11  1  0
 11  6  2  0
 12 13  2  0
 13 14  1  0
 14 15  2  0
 15 16  1  0
 16 17  2  0
 17 12  1  0
 14 18  1  0
 17 19  1  0
 19 20  1  0
 20 21  1  0
 21 22  1  0
 22 23  1  0
 23 19  1  0
 22 24  1  1
  1 24  1  0
 16 25  1  0
M  END
$$$$
