ziftomenib.sdf
     RDKit          3D

 49 54  0  0  1  0  0  0  0  0999 V2000
  -20.6255    3.9056   29.7500 N   0  0  0  0  0  0  0  0  0  0  0  0
  -20.7688    3.2081   28.8268 C   0  0  0  0  0  0  0  0  0  0  0  0
  -20.9547    2.3492   27.7064 C   0  0  0  0  0  0  0  0  0  0  0  0
  -22.1178    1.8984   27.1643 N   0  0  0  0  0  0  0  0  0  0  0  0
  -23.3983    2.2784   27.7041 C   0  0  0  0  0  0  0  0  0  0  0  0
  -24.3399    1.1118   27.8520 C   0  0  1  0  0  0  0  0  0  0  0  0
  -25.2692    1.3900   28.9232 N   0  0  0  0  0  0  0  0  0  0  0  0
  -26.6274    1.4464   28.4867 C   0  0  0  0  0  0  0  0  0  0  0  0
  -27.5100    0.4233   29.1650 C   0  0  0  0  0  0  0  0  0  0  0  0
  -27.4406    0.5786   30.5782 N   0  0  0  0  0  0  0  0  0  0  0  0
  -28.4186    1.8200   31.2072 S   0  0  1  0  0  6  0  0  0  0  0  0
  -29.3376    2.4338   30.1602 O   0  0  0  0  0  0  0  0  0  0  0  0
  -29.4136    1.1713   32.5384 C   0  0  0  0  0  0  0  0  0  0  0  0
  -27.6059    2.9582   31.7717 O   0  0  0  0  0  0  0  0  0  0  0  0
  -26.1164    0.5052   31.0871 C   0  0  0  0  0  0  0  0  0  0  0  0
  -25.0047    0.6749   30.1153 C   0  0  0  0  0  0  0  0  0  0  0  0
  -25.0026    0.8394   26.5486 C   0  0  0  0  0  0  0  0  0  0  0  0
  -19.8895    1.8232   26.9669 C   0  0  0  0  0  0  0  0  0  0  0  0
  -20.4688    1.0604   25.9867 C   0  0  0  0  0  0  0  0  0  0  0  0
  -21.8255    1.1147   26.1179 C   0  0  0  0  0  0  0  0  0  0  0  0
  -22.5997    0.4151   25.2143 C   0  0  0  0  0  0  0  0  0  0  0  0
  -21.9903   -0.3054   24.2258 C   0  0  0  0  0  0  0  0  0  0  0  0
  -20.5843   -0.3699   24.0816 C   0  0  0  0  0  0  0  0  0  0  0  0
  -20.0425   -1.2191   22.9966 C   0  0  0  0  0  0  0  0  0  0  0  0
  -20.9429   -1.8093   22.1042 N   0  0  0  0  0  0  0  0  0  0  0  0
  -21.9575   -2.6898   22.5150 C   0  0  0  0  0  0  0  0  0  0  0  0
  -21.5112   -4.0923   22.7611 C   0  0  0  0  0  0  0  0  0  0  0  0
  -20.7413   -4.6505   21.6033 C   0  0  2  0  0  0  0  0  0  0  0  0
  -20.0144   -5.8426   22.0092 N   0  0  0  0  0  0  0  0  0  0  0  0
  -19.4030   -6.7653   21.1421 C   0  0  0  0  0  0  0  0  0  0  0  0
  -19.1062   -8.0855   21.5749 C   0  0  0  0  0  0  0  0  0  0  0  0
  -19.3496   -8.6118   22.7891 C   0  0  0  0  0  0  0  0  0  0  0  0
  -18.9923   -9.8956   23.0257 C   0  0  0  0  0  0  0  0  0  0  0  0
  -19.1299  -10.7232   24.2491 C   0  0  0  0  0  0  0  0  0  0  0  0
  -19.5059  -12.1284   23.8150 C   0  0  1  0  0  0  0  0  0  0  0  0
  -18.4333  -12.7476   23.1724 F   0  0  0  0  0  0  0  0  0  0  0  0
  -19.8486  -12.9145   24.8844 F   0  0  0  0  0  0  0  0  0  0  0  0
  -20.5354  -12.1209   22.9119 F   0  0  0  0  0  0  0  0  0  0  0  0
  -18.2875  -10.4097   21.5111 S   0  0  0  0  0  0  0  0  0  0  0  0
  -18.5145   -8.8549   20.6335 C   0  0  0  0  0  0  0  0  0  0  0  0
  -18.2032   -8.4699   19.3704 N   0  0  0  0  0  0  0  0  0  0  0  0
  -18.5044   -7.1937   18.9912 C   0  0  0  0  0  0  0  0  0  0  0  0
  -18.2142   -6.7094   17.7112 N   0  0  0  0  0  0  0  0  0  0  0  0
  -18.7554   -5.4002   17.3336 C   0  0  0  0  0  0  0  0  0  0  0  0
  -19.0888   -6.4122   19.9014 N   0  0  0  0  0  0  0  0  0  0  0  0
  -19.7640   -3.6723   21.0612 C   0  0  0  0  0  0  0  0  0  0  0  0
  -20.3041   -2.2731   20.8714 C   0  0  0  0  0  0  0  0  0  0  0  0
  -19.8240    0.3254   24.9763 C   0  0  0  0  0  0  0  0  0  0  0  0
  -18.3423    0.3660   24.8761 C   0  0  0  0  0  0  0  0  0  0  0  0
  1  2  3  0
  2  3  1  0
  3  4  1  0
  4  5  1  0
  5  6  1  0
  6  7  1  0
  7  8  1  0
  8  9  1  0
  9 10  1  0
 10 11  1  0
 11 12  2  0
 11 13  1  1
 11 14  2  0
 10 15  1  0
 15 16  1  0
  7 16  1  0
  6 17  1  6
  3 18  2  0
 18 19  1  0
 19 20  2  0
  4 20  1  0
 20 21  1  0
 21 22  2  0
 22 23  1  0
 23 24  1  0
 24 25  1  0
 25 26  1  0
 26 27  1  0
 27 28  1  0
 28 29  1  1
 29 30  1  0
 30 31  2  0
 31 32  1  0
 32 33  2  0
 33 34  1  0
 34 35  1  0
 35 36  1  6
 35 37  1  0
 35 38  1  0
 33 39  1  0
 31 40  1  0
 39 40  1  0
 40 41  2  0
 41 42  1  0
 42 43  1  0
 43 44  1  0
 42 45  2  0
 30 45  1  0
 28 46  1  0
 46 47  1  0
 25 47  1  0
 23 48  2  0
 19 48  1  0
 48 49  1  0
M  END
$$$$
