NS-C-142.sdf
     RDKit          3D

 25 28  0  0  1  0  0  0  0  0999 V2000
  -20.2708   -1.8001   22.2622 C   0  0  0  0  0  0  0  0  0  0  0  0
  -19.9628   -3.1926   21.9356 C   0  0  0  0  0  0  0  0  0  0  0  0
  -21.2526   -1.2424   21.6665 O   0  0  0  0  0  0  0  0  0  0  0  0
  -18.8026   -3.7732   22.4216 C   0  0  0  0  0  0  0  0  0  0  0  0
  -18.4065   -5.0216   22.2011 N   0  0  0  0  0  0  0  0  0  0  0  0
  -19.2215   -5.7978   21.4240 C   0  0  0  0  0  0  0  0  0  0  0  0
  -20.3944   -5.3003   20.8997 C   0  0  0  0  0  0  0  0  0  0  0  0
  -20.7688   -3.9795   21.1599 C   0  0  0  0  0  0  0  0  0  0  0  0
  -17.3620   -5.7948   22.5465 C   0  0  0  0  0  0  0  0  0  0  0  0
  -17.5110   -7.0122   22.0087 N   0  0  0  0  0  0  0  0  0  0  0  0
  -18.6482   -7.0073   21.3247 N   0  0  0  0  0  0  0  0  0  0  0  0
  -21.7742    1.7985   27.4373 C   0  0  0  0  0  0  0  0  0  0  0  0
  -22.1480    2.3836   28.6463 C   0  0  0  0  0  0  0  0  0  0  0  0
  -21.3739    3.3734   29.2229 C   0  0  0  0  0  0  0  0  0  0  0  0
  -20.2309    3.7510   28.5579 C   0  0  0  0  0  0  0  0  0  0  0  0
  -19.8496    3.1777   27.3575 C   0  0  0  0  0  0  0  0  0  0  0  0
  -20.6244    2.1877   26.7814 C   0  0  0  0  0  0  0  0  0  0  0  0
  -21.7339    3.9510   30.4070 F   0  0  0  0  0  0  0  0  0  0  0  0
  -20.2311    1.5943   25.5405 N   0  0  0  0  0  0  0  0  0  0  0  0
  -19.5806    2.3719   24.4963 C   0  0  0  0  0  0  0  0  0  0  0  0
  -19.0463    1.3275   23.5547 C   0  0  0  0  0  0  0  0  0  0  0  0
  -20.1016    0.2177   23.6600 C   0  0  2  0  0  0  0  0  0  0  0  0
  -20.3932    0.2174   25.1223 C   0  0  0  0  0  0  0  0  0  0  0  0
  -19.5335   -1.0455   23.2044 N   0  0  0  0  0  0  0  0  0  0  0  0
  -18.7094    3.5605   26.7027 F   0  0  0  0  0  0  0  0  0  0  0  0
  1  2  1  0
  1  3  2  0
  2  4  2  0
  4  5  1  0
  5  6  1  0
  6  7  1  0
  7  8  2  0
  8  2  1  0
  5  9  1  0
  9 10  2  0
 10 11  1  0
 11  6  2  0
 12 13  2  0
 13 14  1  0
 14 15  2  0
 15 16  1  0
 16 17  2  0
 17 12  1  0
 14 18  1  0
 17 19  1  0
 19 20  1  0
 20 21  1  0
 21 22  1  0
 22 23  1  0
 23 19  1  0
 22 24  1  1
  1 24  1  0
 16 25  1  0
M  END
$$$$
