ziftomenib.sdf
     RDKit          3D

 49 54  0  0  1  0  0  0  0  0999 V2000
  -17.1870  -13.1978   22.2857 N   0  0  0  0  0  0  0  0  0  0  0  0
  -17.6998  -12.1655   22.4620 C   0  0  0  0  0  0  0  0  0  0  0  0
  -18.3126  -10.8988   22.6793 C   0  0  0  0  0  0  0  0  0  0  0  0
  -19.4223  -10.6049   23.4087 N   0  0  0  0  0  0  0  0  0  0  0  0
  -20.1577  -11.6276   24.1079 C   0  0  0  0  0  0  0  0  0  0  0  0
  -21.6195  -11.6484   23.7447 C   0  0  1  0  0  0  0  0  0  0  0  0
  -21.8353  -12.6428   22.7185 N   0  0  0  0  0  0  0  0  0  0  0  0
  -23.2088  -13.0010   22.5648 C   0  0  0  0  0  0  0  0  0  0  0  0
  -23.7412  -12.7229   21.1774 C   0  0  0  0  0  0  0  0  0  0  0  0
  -22.9463  -13.3935   20.2056 N   0  0  0  0  0  0  0  0  0  0  0  0
  -23.3117  -15.0421   20.0011 S   0  0  1  0  0  6  0  0  0  0  0  0
  -22.7273  -15.6207   18.7201 O   0  0  0  0  0  0  0  0  0  0  0  0
  -22.6791  -15.9644   21.3912 C   0  0  0  0  0  0  0  0  0  0  0  0
  -24.7970  -15.2953   19.9368 O   0  0  0  0  0  0  0  0  0  0  0  0
  -21.5671  -13.0620   20.2822 C   0  0  0  0  0  0  0  0  0  0  0  0
  -21.0911  -12.4205   21.5356 C   0  0  0  0  0  0  0  0  0  0  0  0
  -22.4329  -11.8745   24.9691 C   0  0  0  0  0  0  0  0  0  0  0  0
  -17.8158   -9.7103   22.1325 C   0  0  0  0  0  0  0  0  0  0  0  0
  -18.6662   -8.7269   22.5662 C   0  0  0  0  0  0  0  0  0  0  0  0
  -19.6396   -9.2846   23.3423 C   0  0  0  0  0  0  0  0  0  0  0  0
  -20.5977   -8.4547   23.8887 C   0  0  0  0  0  0  0  0  0  0  0  0
  -20.5444   -7.1126   23.6371 C   0  0  0  0  0  0  0  0  0  0  0  0
  -19.5404   -6.5240   22.8325 C   0  0  0  0  0  0  0  0  0  0  0  0
  -19.6146   -5.0639   22.5987 C   0  0  0  0  0  0  0  0  0  0  0  0
  -20.8329   -4.4168   22.8279 N   0  0  0  0  0  0  0  0  0  0  0  0
  -21.1786   -3.2017   22.2133 C   0  0  0  0  0  0  0  0  0  0  0  0
  -20.5841   -1.9869   22.8437 C   0  0  0  0  0  0  0  0  0  0  0  0
  -20.8307   -1.9399   24.3207 C   0  0  2  0  0  0  0  0  0  0  0  0
  -19.9429   -0.9752   24.9496 N   0  0  0  0  0  0  0  0  0  0  0  0
  -19.6569    0.3134   24.4651 C   0  0  0  0  0  0  0  0  0  0  0  0
  -19.7054    1.4427   25.3258 C   0  0  0  0  0  0  0  0  0  0  0  0
  -20.0081    1.4471   26.6370 C   0  0  0  0  0  0  0  0  0  0  0  0
  -20.0088    2.6265   27.3009 C   0  0  0  0  0  0  0  0  0  0  0  0
  -20.3037    2.9304   28.7226 C   0  0  0  0  0  0  0  0  0  0  0  0
  -21.6435    3.6425   28.7731 C   0  0  1  0  0  0  0  0  0  0  0  0
  -22.0138    3.8994   30.0936 F   0  0  0  0  0  0  0  0  0  0  0  0
  -21.6021    4.8470   28.1202 F   0  0  0  0  0  0  0  0  0  0  0  0
  -22.6453    2.8750   28.2413 F   0  0  0  0  0  0  0  0  0  0  0  0
  -19.5735    3.7889   26.0703 S   0  0  0  0  0  0  0  0  0  0  0  0
  -19.4123    2.6137   24.7168 C   0  0  0  0  0  0  0  0  0  0  0  0
  -19.0912    2.7725   23.4082 N   0  0  0  0  0  0  0  0  0  0  0  0
  -19.0544    1.6638   22.6129 C   0  0  0  0  0  0  0  0  0  0  0  0
  -18.7391    1.7343   21.2517 N   0  0  0  0  0  0  0  0  0  0  0  0
  -18.7624    0.4902   20.4763 C   0  0  0  0  0  0  0  0  0  0  0  0
  -19.3401    0.4943   23.1886 N   0  0  0  0  0  0  0  0  0  0  0  0
  -20.6121   -3.2606   24.9639 C   0  0  0  0  0  0  0  0  0  0  0  0
  -21.2317   -4.4320   24.2362 C   0  0  0  0  0  0  0  0  0  0  0  0
  -18.5947   -7.3489   22.2969 C   0  0  0  0  0  0  0  0  0  0  0  0
  -17.4683   -6.8210   21.4845 C   0  0  0  0  0  0  0  0  0  0  0  0
  1  2  3  0
  2  3  1  0
  3  4  1  0
  4  5  1  0
  5  6  1  0
  6  7  1  0
  7  8  1  0
  8  9  1  0
  9 10  1  0
 10 11  1  0
 11 12  2  0
 11 13  1  1
 11 14  2  0
 10 15  1  0
 15 16  1  0
  7 16  1  0
  6 17  1  1
  3 18  2  0
 18 19  1  0
 19 20  2  0
  4 20  1  0
 20 21  1  0
 21 22  2  0
 22 23  1  0
 23 24  1  0
 24 25  1  0
 25 26  1  0
 26 27  1  0
 27 28  1  0
 28 29  1  1
 29 30  1  0
 30 31  2  0
 31 32  1  0
 32 33  2  0
 33 34  1  0
 34 35  1  0
 35 36  1  1
 35 37  1  0
 35 38  1  0
 33 39  1  0
 31 40  1  0
 39 40  1  0
 40 41  2  0
 41 42  1  0
 42 43  1  0
 43 44  1  0
 42 45  2  0
 30 45  1  0
 28 46  1  0
 46 47  1  0
 25 47  1  0
 23 48  2  0
 19 48  1  0
 48 49  1  0
M  END
$$$$
